@<TRIPOS>MOLECULE
prep_pdb/NO01_all_mod.pdb
 50442 39902 10546 0 0
SMALL
GASTEIGER

@<TRIPOS>ATOM
     1 N           -2.3540    -1.6970    -2.2370 N.am      1  DAL1       -0.2456
     2 HN          -1.8290    -2.4890    -2.5280 H         1  DAL1        0.1413
     3 CA          -3.1410    -0.9050    -3.2220 C.3       1  DAL1        0.0849
     4 HA          -4.0000    -0.5060    -2.8140 H         1  DAL1        0.0554
     5 CB          -3.4910    -1.9460    -4.3200 C.3       1  DAL1       -0.0411
     6 HB1         -2.5230    -2.2790    -4.7430 H         1  DAL1        0.0249
     7 HB2         -3.9450    -1.4180    -5.1850 H         1  DAL1        0.0249
     8 HB3         -4.0940    -2.7240    -3.8460 H         1  DAL1        0.0249
     9 C           -2.3520     0.2110    -3.8630 C.2       1  DAL1        0.2174
    10 O           -2.8260     1.1090    -4.5330 O.2       1  DAL1       -0.2872
    11 N           -1.0770     0.2370    -3.6340 N.am      2  ALA2       -0.2456
    12 HN          -0.6510    -0.4720    -3.1360 H         2  ALA2        0.1413
    13 CA          -0.2440     1.3500    -3.9630 C.3       2  ALA2        0.0849
    14 HA          -0.3460     1.5940    -4.9670 H         2  ALA2        0.0554
    15 CB          -0.5430     2.5810    -3.1350 C.3       2  ALA2       -0.0411
    16 HB1          0.1590     3.3500    -3.4390 H         2  ALA2        0.0249
    17 HB2         -1.5610     2.9890    -3.3590 H         2  ALA2        0.0249
    18 HB3         -0.4180     2.4230    -2.0540 H         2  ALA2        0.0249
    19 C            1.1590     1.0050    -3.7430 C.2       2  ALA2        0.2174
    20 O            1.4700    -0.1700    -3.9260 O.2       2  ALA2       -0.2872
    21 N            2.0620     1.9730    -3.3820 N.am      3  ALA3       -0.2456
    22 HN           1.8430     2.9620    -3.5170 H         3  ALA3        0.1413
    23 CA           3.4540     1.6120    -3.0860 C.3       3  ALA3        0.0849
    24 HA           3.6820     0.6060    -3.3260 H         3  ALA3        0.0554
    25 CB           4.2990     2.6650    -3.8750 C.3       3  ALA3       -0.0411
    26 HB1          5.3870     2.7130    -3.6030 H         3  ALA3        0.0249
    27 HB2          4.2810     2.3370    -4.9420 H         3  ALA3        0.0249
    28 HB3          3.9520     3.6950    -3.8490 H         3  ALA3        0.0249
    29 C            3.6720     1.6860    -1.5350 C.2       3  ALA3        0.2174
    30 O            4.8170     1.8600    -1.0970 O.2       3  ALA3       -0.2872
    31 N            2.5850     1.4990    -0.7110 N.am      4  ALA4       -0.2456
    32 HN           1.7210     1.3460    -1.2020 H         4  ALA4        0.1413
    33 CA           2.5460     1.5320     0.7180 C.3       4  ALA4        0.0849
    34 HA           3.5390     1.6130     1.1250 H         4  ALA4        0.0554
    35 CB           1.6740     2.7720     1.1370 C.3       4  ALA4       -0.0411
    36 HB1          1.6200     2.9230     2.2150 H         4  ALA4        0.0249
    37 HB2          0.6350     2.5590     0.8290 H         4  ALA4        0.0249
    38 HB3          2.0020     3.6960     0.5710 H         4  ALA4        0.0249
    39 C            1.8320     0.2480     1.1570 C.2       4  ALA4        0.2174
    40 O            1.7030    -0.6710     0.3050 O.2       4  ALA4       -0.2872
    41 N            1.2850     0.1180     2.3850 N.am      5  MAL5       -0.2326
    42 CA           0.1940    -0.8060     2.6600 C.3       5  MAL5        0.0878
    43 HA           0.7230    -1.6510     2.6800 H         5  MAL5        0.0557
    44 CM           1.9640     0.6890     3.5590 C.3       5  MAL5        0.0032
    45 HM1          2.9380     1.0170     3.3120 H         5  MAL5        0.0405
    46 HM2          1.2830     1.5160     3.8850 H         5  MAL5        0.0405
    47 HM3          1.9820     0.0300     4.3320 H         5  MAL5        0.0405
    48 CB          -0.7040    -0.5610     3.9480 C.3       5  MAL5       -0.0408
    49 HB1         -1.4880    -1.3230     4.0070 H         5  MAL5        0.0249
    50 HB2         -1.3260     0.3540     3.8460 H         5  MAL5        0.0249
    51 HB3         -0.2280    -0.4360     4.8780 H         5  MAL5        0.0249
    52 C           -0.7790    -1.0580     1.4790 C.2       5  MAL5        0.2177
    53 O           -1.0350    -0.0890     0.7420 O.2       5  MAL5       -0.2872
    54 N           -1.3120    -2.2400     1.1980 N.am      6  MAL6       -0.2326
    55 CA          -1.9200    -2.6050    -0.1150 C.3       6  MAL6        0.0878
    56 HA          -1.0080    -2.7350    -0.6790 H         6  MAL6        0.0557
    57 CM          -1.0060    -3.3120     2.0460 C.3       6  MAL6        0.0032
    58 HM1         -0.3190    -3.9430     1.5810 H         6  MAL6        0.0405
    59 HM2         -1.9810    -3.8710     2.1980 H         6  MAL6        0.0405
    60 HM3         -0.6500    -3.0420     3.0910 H         6  MAL6        0.0405
    61 CB          -2.8060    -3.8580    -0.1180 C.3       6  MAL6       -0.0408
    62 HB1         -2.2270    -4.7620     0.1960 H         6  MAL6        0.0249
    63 HB2         -3.1600    -4.1390    -1.0990 H         6  MAL6        0.0249
    64 HB3         -3.6800    -3.7060     0.5020 H         6  MAL6        0.0249
    65 C           -2.6180    -1.5680    -0.9340 C.2       6  MAL6        0.2177
    66 O           -3.4550    -0.7780    -0.5490 O.2       6  MAL6       -0.2872
    67 N           -3.8130   -24.4190    21.8860 N.4       7  POP1        0.2385
    68 C12         -3.3440   -24.0400    20.4740 C.3       7  POP1       -0.0064
    69 H12A        -3.1590   -22.9390    20.4610 H         7  POP1        0.0838
    70 H12B        -4.0800   -24.2560    19.7750 H         7  POP1        0.0838
    71 C13         -5.3190   -24.4170    21.8000 C.3       7  POP1       -0.0417
    72 H13A        -5.6840   -23.4810    21.3300 H         7  POP1        0.0778
    73 H13B        -5.6460   -25.1410    21.0670 H         7  POP1        0.0778
    74 H13C        -5.7550   -24.5000    22.7710 H         7  POP1        0.0778
    75 C14         -3.3650   -25.7610    22.4740 C.3       7  POP1       -0.0417
    76 H14A        -2.2120   -25.8400    22.4920 H         7  POP1        0.0778
    77 H14B        -3.7680   -25.9280    23.4520 H         7  POP1        0.0778
    78 H14C        -3.8360   -26.5260    21.7730 H         7  POP1        0.0778
    79 C15         -3.4410   -23.4450    22.9370 C.3       7  POP1       -0.0417
    80 H15A        -2.3610   -23.3410    23.1100 H         7  POP1        0.0778
    81 H15B        -3.8650   -23.6660    23.9730 H         7  POP1        0.0778
    82 H15C        -3.7830   -22.4560    22.7220 H         7  POP1        0.0778
    83 C11         -2.0800   -24.7160    19.9750 C.3       7  POP1        0.0954
    84 H11A        -1.2440   -24.5380    20.6280 H         7  POP1        0.0618
    85 H11B        -1.5800   -24.1570    19.0540 H         7  POP1        0.0618
    86 P           -3.0370   -26.4460    18.3840 P.3       7  POP1        0.2645
    87 O13         -4.4970   -26.2510    18.7550 O.co2     7  POP1       -0.5105
    88 O14         -2.5540   -27.7770    18.0560 O.co2     7  POP1       -0.5105
    89 O12         -2.2340   -26.0190    19.6790 O.3       7  POP1       -0.3154
    90 O11         -2.6230   -25.4700    17.1990 O.3       7  POP1       -0.3181
    91 C1          -3.4130   -24.4170    16.6770 C.3       7  POP1        0.0845
    92 HA          -3.3170   -23.5740    17.2780 H         7  POP1        0.0591
    93 HB          -4.4620   -24.6910    16.8380 H         7  POP1        0.0591
    94 C2          -3.0280   -24.1030    15.2140 C.3       7  POP1        0.1155
    95 HS          -3.8060   -23.3660    14.8530 H         7  POP1        0.0649
    96 O21         -3.1680   -25.2140    14.3220 O.3       7  POP1       -0.3072
    97 C21         -4.3990   -25.6810    14.2480 C.2       7  POP1        0.2626
    98 O22         -5.3940   -25.1530    14.7150 O.2       7  POP1       -0.2650
    99 C22         -4.2870   -27.0260    13.5970 C.3       7  POP1        0.0332
   100 H2R         -5.2790   -27.4860    13.6190 H         7  POP1        0.0366
   101 H2S         -3.5390   -27.5710    14.2000 H         7  POP1        0.0366
   102 C3          -1.6740   -23.4840    15.0490 C.3       7  POP1        0.0860
   103 HX          -1.0060   -24.3410    15.4700 H         7  POP1        0.0593
   104 HY          -1.4320   -22.5970    15.6860 H         7  POP1        0.0593
   105 O31         -1.3750   -23.0710    13.6930 O.3       7  POP1       -0.3125
   106 C31         -0.2740   -23.6890    13.0740 C.2       7  POP1        0.2622
   107 O32          0.3570   -24.5920    13.5720 O.2       7  POP1       -0.2650
   108 C32         -0.1040   -23.0690    11.6900 C.3       7  POP1        0.0332
   109 H2X          0.9060   -23.2990    11.3380 H         7  POP1        0.0366
   110 H2Y         -0.2990   -21.9330    11.9140 H         7  POP1        0.0366
   111 C23         -3.7530   -27.0140    12.0730 C.3       7  POP1       -0.0441
   112 H3R         -2.6620   -26.8740    12.1210 H         7  POP1        0.0270
   113 H3S         -4.2190   -26.2080    11.4540 H         7  POP1        0.0270
   114 C24         -4.0760   -28.3600    11.3900 C.3       7  POP1       -0.0526
   115 H4R         -5.1760   -28.4410    11.2300 H         7  POP1        0.0265
   116 H4S         -3.7910   -29.2250    12.0990 H         7  POP1        0.0265
   117 C25         -3.4280   -28.5750    10.0010 C.3       7  POP1       -0.0530
   118 H5R         -2.4940   -28.9060    10.3160 H         7  POP1        0.0265
   119 H5S         -3.4700   -27.5990     9.4210 H         7  POP1        0.0265
   120 C26         -3.9550   -29.6990     9.1370 C.3       7  POP1       -0.0528
   121 H6R         -5.0200   -29.6270     8.9850 H         7  POP1        0.0265
   122 H6S         -3.7210   -30.6760     9.6000 H         7  POP1        0.0265
   123 C27         -3.3540   -29.7040     7.7210 C.3       7  POP1       -0.0496
   124 H7R         -2.3050   -30.0750     7.8450 H         7  POP1        0.0268
   125 H7S         -3.2410   -28.6380     7.2320 H         7  POP1        0.0268
   126 C28         -4.1540   -30.7200     6.8670 C.3       7  POP1       -0.0348
   127 H8R         -5.2430   -30.7550     6.9650 H         7  POP1        0.0307
   128 H8S         -3.7580   -31.7400     7.1660 H         7  POP1        0.0307
   129 C29         -3.8240   -30.4500     5.4450 C.2       7  POP1       -0.0879
   130 H91         -2.9030   -30.8980     5.0100 H         7  POP1        0.0569
   131 C210        -4.5570   -29.7930     4.5570 C.2       7  POP1       -0.0879
   132 H101        -4.0660   -29.5270     3.6740 H         7  POP1        0.0569
   133 C211        -5.8650   -29.0420     4.6710 C.3       7  POP1       -0.0348
   134 H11R        -5.7210   -27.9450     4.7730 H         7  POP1        0.0307
   135 H11S        -6.3460   -29.3150     5.6540 H         7  POP1        0.0307
   136 C212        -6.9100   -29.3920     3.5700 C.3       7  POP1       -0.0496
   137 H12R        -7.1280   -30.4610     3.6400 H         7  POP1        0.0268
   138 H12S        -6.3820   -29.1900     2.6260 H         7  POP1        0.0268
   139 C213        -8.1110   -28.4500     3.5790 C.3       7  POP1       -0.0528
   140 H13R        -7.8410   -27.4500     3.3780 H         7  POP1        0.0265
   141 H13S        -8.6460   -28.7180     4.4640 H         7  POP1        0.0265
   142 C214        -9.0950   -28.7530     2.3770 C.3       7  POP1       -0.0530
   143 H14R        -9.3430   -29.8290     2.5230 H         7  POP1        0.0265
   144 H14S        -8.6220   -28.5430     1.3930 H         7  POP1        0.0265
   145 C215       -10.3430   -27.8920     2.4770 C.3       7  POP1       -0.0531
   146 H15R       -10.0570   -26.8350     2.3400 H         7  POP1        0.0265
   147 H15S       -10.7340   -28.1120     3.4600 H         7  POP1        0.0265
   148 C216       -11.3490   -28.3140     1.4570 C.3       7  POP1       -0.0533
   149 H16R       -11.6150   -29.3640     1.7560 H         7  POP1        0.0265
   150 H16S       -11.0120   -28.3380     0.4230 H         7  POP1        0.0265
   151 C217       -12.5250   -27.4320     1.5130 C.3       7  POP1       -0.0559
   152 H17R       -12.2800   -26.3730     1.2990 H         7  POP1        0.0263
   153 H17S       -13.0080   -27.3660     2.5530 H         7  POP1        0.0263
   154 C218       -13.6290   -27.8530     0.4930 C.3       7  POP1       -0.0653
   155 H18R       -13.3690   -27.6310    -0.5450 H         7  POP1        0.0230
   156 H18S       -14.6210   -27.3770     0.7160 H         7  POP1        0.0230
   157 H18T       -13.8310   -28.9440     0.6560 H         7  POP1        0.0230
   158 C33         -1.1820   -23.5300    10.7300 C.3       7  POP1       -0.0441
   159 H3X         -1.4780   -22.6670    10.0570 H         7  POP1        0.0270
   160 H3Y         -2.0960   -23.7450    11.3270 H         7  POP1        0.0270
   161 C34         -0.7340   -24.7360    10.0070 C.3       7  POP1       -0.0526
   162 H4X         -0.4940   -25.4720    10.7860 H         7  POP1        0.0265
   163 H4Y          0.1550   -24.5430     9.3500 H         7  POP1        0.0265
   164 C35         -1.7060   -25.3790     9.0200 C.3       7  POP1       -0.0530
   165 H5X         -2.6310   -25.6510     9.5280 H         7  POP1        0.0265
   166 H5Y         -1.2110   -26.3520     8.7260 H         7  POP1        0.0265
   167 C36         -1.9420   -24.5780     7.7190 C.3       7  POP1       -0.0531
   168 H6X         -1.0290   -24.4990     7.1690 H         7  POP1        0.0265
   169 H6Y         -2.4000   -23.5440     7.9400 H         7  POP1        0.0265
   170 C37         -2.9000   -25.3760     6.8170 C.3       7  POP1       -0.0531
   171 H7X         -3.9460   -25.2220     7.1480 H         7  POP1        0.0265
   172 H7Y         -2.6860   -26.4790     6.7110 H         7  POP1        0.0265
   173 C38         -2.9610   -24.8500     5.3670 C.3       7  POP1       -0.0531
   174 H8X         -1.9270   -24.8570     4.9240 H         7  POP1        0.0265
   175 H8Y         -3.4000   -23.8120     5.2650 H         7  POP1        0.0265
   176 C39         -3.8640   -25.7520     4.6090 C.3       7  POP1       -0.0531
   177 H9X         -4.9070   -25.9370     5.0500 H         7  POP1        0.0265
   178 H9Y         -3.4090   -26.7340     4.4500 H         7  POP1        0.0265
   179 C310        -4.0290   -25.1500     3.2170 C.3       7  POP1       -0.0531
   180 H10X        -3.0380   -25.3970     2.6470 H         7  POP1        0.0265
   181 H10Y        -4.1390   -24.0250     3.3060 H         7  POP1        0.0265
   182 C311        -5.1820   -25.7050     2.4110 C.3       7  POP1       -0.0531
   183 H11X        -6.2060   -25.1470     2.4540 H         7  POP1        0.0265
   184 H11Y        -5.5310   -26.7480     2.7750 H         7  POP1        0.0265
   185 C312        -4.8480   -26.0610     0.9310 C.3       7  POP1       -0.0531
   186 H12X        -3.9180   -26.6500     0.8870 H         7  POP1        0.0265
   187 H12Y        -4.6830   -25.1720     0.3230 H         7  POP1        0.0265
   188 C313        -5.9320   -26.8520     0.2300 C.3       7  POP1       -0.0531
   189 H13X        -6.8250   -26.2910    -0.0660 H         7  POP1        0.0265
   190 H13Y        -6.2460   -27.5730     1.0380 H         7  POP1        0.0265
   191 C314        -5.3580   -27.7600    -0.8740 C.3       7  POP1       -0.0533
   192 H14X        -4.4350   -28.2150    -0.6430 H         7  POP1        0.0265
   193 H14Y        -5.1390   -27.0770    -1.7810 H         7  POP1        0.0265
   194 C315        -6.4690   -28.7430    -1.4220 C.3       7  POP1       -0.0559
   195 H15X        -7.4030   -28.1420    -1.4870 H         7  POP1        0.0263
   196 H15Y        -6.5540   -29.5870    -0.7150 H         7  POP1        0.0263
   197 C316        -6.0730   -29.2660    -2.8080 C.3       7  POP1       -0.0653
   198 H16X        -5.9090   -28.3690    -3.4800 H         7  POP1        0.0230
   199 H16Y        -6.8840   -29.8830    -3.3030 H         7  POP1        0.0230
   200 H16Z        -5.1600   -29.8880    -2.7240 H         7  POP1        0.0230
   201 N            8.9240   -29.2500    22.8010 N.3       8  POP2        0.2385
   202 C12          9.1350   -28.5370    21.4580 C.3       8  POP2       -0.0064
   203 H12A        10.2340   -28.4800    21.2830 H         8  POP2        0.0838
   204 H12B         8.8030   -27.5270    21.6290 H         8  POP2        0.0838
   205 C13          7.4120   -29.2420    23.1210 C.3       8  POP2       -0.0417
   206 H13A         7.3040   -28.1950    23.4170 H         8  POP2        0.0778
   207 H13B         6.8340   -29.4070    22.2150 H         8  POP2        0.0778
   208 H13C         7.2070   -29.9980    23.9120 H         8  POP2        0.0778
   209 C14          9.3580   -30.6930    22.8140 C.3       8  POP2       -0.0417
   210 H14A        10.4260   -30.7450    22.5420 H         8  POP2        0.0778
   211 H14B         9.2890   -31.2160    23.7640 H         8  POP2        0.0778
   212 H14C         8.8000   -31.2250    22.0260 H         8  POP2        0.0778
   213 C15          9.6320   -28.5910    23.9570 C.3       8  POP2       -0.0417
   214 H15A        10.7330   -28.4610    23.8840 H         8  POP2        0.0778
   215 H15B         9.4540   -29.2600    24.8210 H         8  POP2        0.0778
   216 H15C         9.2370   -27.6450    24.2250 H         8  POP2        0.0778
   217 C11          8.4630   -28.9640    20.1170 C.3       8  POP2        0.0954
   218 H11A         8.7480   -30.0310    19.7970 H         8  POP2        0.0618
   219 H11B         8.9050   -28.2940    19.3180 H         8  POP2        0.0618
   220 P            6.2820   -27.4880    20.1130 P.3       8  POP2        0.2645
   221 O13          7.1730   -26.4590    20.6690 O.co2     8  POP2       -0.5105
   222 O14          4.9980   -27.7740    20.8350 O.co2     8  POP2       -0.5105
   223 O12          7.1100   -28.9050    20.1970 O.3       8  POP2       -0.3154
   224 O11          5.9800   -27.2600    18.6030 O.3       8  POP2       -0.3181
   225 C1           5.8550   -28.2510    17.5980 C.3       8  POP2        0.0845
   226 HA           5.0200   -27.9550    16.8330 H         8  POP2        0.0591
   227 HB           5.4440   -29.2390    18.0580 H         8  POP2        0.0591
   228 C2           7.1500   -28.6450    16.8940 C.3       8  POP2        0.1155
   229 HS           7.9760   -28.7670    17.6490 H         8  POP2        0.0649
   230 O21          7.3770   -27.7080    15.7800 O.3       8  POP2       -0.3072
   231 C21          7.7320   -26.5090    16.1810 C.2       8  POP2        0.2626
   232 O22          8.1460   -26.2260    17.2950 O.2       8  POP2       -0.2650
   233 C22          7.5730   -25.5420    14.8760 C.3       8  POP2        0.0332
   234 H2R          8.5830   -25.5570    14.3750 H         8  POP2        0.0366
   235 H2S          7.2820   -24.5470    15.1720 H         8  POP2        0.0366
   236 C3           6.8690   -30.0510    16.2260 C.3       8  POP2        0.0860
   237 HX           5.9540   -30.0010    15.5530 H         8  POP2        0.0593
   238 HY           6.8020   -30.9390    16.9180 H         8  POP2        0.0593
   239 O31          8.1120   -30.3560    15.5000 O.3       8  POP2       -0.3125
   240 C31          8.1440   -30.0140    14.1680 C.2       8  POP2        0.2622
   241 O32          7.1560   -29.7380    13.5280 O.2       8  POP2       -0.2650
   242 C32          9.6480   -29.9940    13.5540 C.3       8  POP2        0.0332
   243 H2X         10.3130   -30.7070    14.1390 H         8  POP2        0.0366
   244 H2Y          9.9740   -28.9670    13.8050 H         8  POP2        0.0366
   245 C23          6.5140   -26.0510    13.8430 C.3       8  POP2       -0.0441
   246 H3R          6.8270   -27.1060    13.5610 H         8  POP2        0.0270
   247 H3S          6.5950   -25.3770    12.9920 H         8  POP2        0.0270
   248 C24          5.0970   -25.9680    14.4550 C.3       8  POP2       -0.0526
   249 H4R          4.9520   -24.9740    14.9510 H         8  POP2        0.0265
   250 H4S          4.9420   -26.6710    15.2120 H         8  POP2        0.0265
   251 C25          3.9680   -26.2230    13.4320 C.3       8  POP2       -0.0530
   252 H5R          4.2150   -25.6490    12.5210 H         8  POP2        0.0265
   253 H5S          3.0400   -25.7220    13.8290 H         8  POP2        0.0265
   254 C26          3.6680   -27.7100    13.1260 C.3       8  POP2       -0.0528
   255 H6R          3.0080   -28.2090    13.8280 H         8  POP2        0.0265
   256 H6S          4.5990   -28.2260    12.9950 H         8  POP2        0.0265
   257 C27          3.0790   -27.9040    11.6650 C.3       8  POP2       -0.0496
   258 H7R          3.6180   -27.1310    11.0140 H         8  POP2        0.0268
   259 H7S          2.0630   -27.6510    11.7020 H         8  POP2        0.0268
   260 C28          3.3710   -29.3070    11.0330 C.3       8  POP2       -0.0348
   261 H8R          2.7400   -29.5420    10.1410 H         8  POP2        0.0307
   262 H8S          3.0850   -30.0790    11.7880 H         8  POP2        0.0307
   263 C29          4.8670   -29.4280    10.6720 C.2       8  POP2       -0.0879
   264 H91          5.5310   -29.4810    11.5890 H         8  POP2        0.0569
   265 C210         5.4470   -29.5910     9.5120 C.2       8  POP2       -0.0879
   266 H101         6.5520   -29.8160     9.5030 H         8  POP2        0.0569
   267 C211         4.7780   -29.5040     8.1290 C.3       8  POP2       -0.0348
   268 H11R         5.5560   -29.0600     7.4560 H         8  POP2        0.0307
   269 H11S         3.9220   -28.8470     8.2150 H         8  POP2        0.0307
   270 C212         4.2880   -30.8700     7.6640 C.3       8  POP2       -0.0496
   271 H12R         3.4220   -31.0590     8.2760 H         8  POP2        0.0268
   272 H12S         5.0800   -31.6460     7.7390 H         8  POP2        0.0268
   273 C213         3.8060   -30.8440     6.2360 C.3       8  POP2       -0.0528
   274 H13R         3.1300   -29.9710     6.0990 H         8  POP2        0.0265
   275 H13S         3.1900   -31.8180     6.1280 H         8  POP2        0.0265
   276 C214         4.8660   -30.9460     5.1420 C.3       8  POP2       -0.0530
   277 H14R         5.6650   -31.7430     5.2770 H         8  POP2        0.0265
   278 H14S         5.4520   -29.9990     5.2210 H         8  POP2        0.0265
   279 C215         4.3400   -31.0120     3.6410 C.3       8  POP2       -0.0531
   280 H15R         3.5140   -30.4040     3.3730 H         8  POP2        0.0265
   281 H15S         4.0010   -32.0370     3.4300 H         8  POP2        0.0265
   282 C216         5.5040   -30.6100     2.7610 C.3       8  POP2       -0.0533
   283 H16R         6.3870   -30.9990     3.2450 H         8  POP2        0.0265
   284 H16S         5.6580   -29.5290     2.6990 H         8  POP2        0.0265
   285 C217         5.2930   -31.1950     1.3260 C.3       8  POP2       -0.0559
   286 H17R         4.4280   -30.6400     0.8770 H         8  POP2        0.0263
   287 H17S         4.9100   -32.3080     1.3680 H         8  POP2        0.0263
   288 C218         6.5090   -31.0250     0.3680 C.3       8  POP2       -0.0653
   289 H18R         6.6820   -29.9090     0.3180 H         8  POP2        0.0230
   290 H18S         6.1970   -31.3580    -0.6060 H         8  POP2        0.0230
   291 H18T         7.4610   -31.5930     0.6770 H         8  POP2        0.0230
   292 C33          9.6240   -30.1970    12.0200 C.3       8  POP2       -0.0441
   293 H3X          8.6740   -29.7250    11.5980 H         8  POP2        0.0270
   294 H3Y          9.5660   -31.2790    11.7700 H         8  POP2        0.0270
   295 C34         10.8050   -29.4140    11.3330 C.3       8  POP2       -0.0526
   296 H4X         11.7330   -29.5960    11.8600 H         8  POP2        0.0265
   297 H4Y         10.5730   -28.3360    11.3420 H         8  POP2        0.0265
   298 C35         11.1940   -29.8110     9.8730 C.3       8  POP2       -0.0530
   299 H5X         11.4760   -30.9020     9.9070 H         8  POP2        0.0265
   300 H5Y         11.9980   -29.1450     9.4740 H         8  POP2        0.0265
   301 C36          9.9550   -29.6900     8.8580 C.3       8  POP2       -0.0531
   302 H6X          9.6310   -28.6190     8.8370 H         8  POP2        0.0265
   303 H6Y          9.0180   -30.2360     9.1880 H         8  POP2        0.0265
   304 C37         10.2520   -30.3390     7.5190 C.3       8  POP2       -0.0531
   305 H7X         10.6730   -31.3650     7.5820 H         8  POP2        0.0265
   306 H7Y         10.8360   -29.5540     6.9510 H         8  POP2        0.0265
   307 C38          8.8660   -30.3930     6.7540 C.3       8  POP2       -0.0531
   308 H8X          8.5420   -29.4270     6.2990 H         8  POP2        0.0265
   309 H8Y          8.1320   -30.6070     7.4530 H         8  POP2        0.0265
   310 C39          8.8900   -31.4460     5.6960 C.3       8  POP2       -0.0531
   311 H9X          7.9880   -31.5350     5.1540 H         8  POP2        0.0265
   312 H9Y          9.1310   -32.4330     6.2570 H         8  POP2        0.0265
   313 C310         9.9120   -31.0910     4.5700 C.3       8  POP2       -0.0531
   314 H10X        10.8920   -30.7770     5.0270 H         8  POP2        0.0265
   315 H10Y         9.5080   -30.2680     3.9490 H         8  POP2        0.0265
   316 C311        10.2430   -32.1360     3.5230 C.3       8  POP2       -0.0531
   317 H11X        11.0360   -32.9350     3.8460 H         8  POP2        0.0265
   318 H11Y        10.8080   -31.5790     2.6740 H         8  POP2        0.0265
   319 C312         9.1270   -32.9290     2.8410 C.3       8  POP2       -0.0531
   320 H12X         8.2690   -32.2200     2.4580 H         8  POP2        0.0265
   321 H12Y         8.7100   -33.5080     3.6920 H         8  POP2        0.0265
   322 C313         9.5180   -33.9800     1.8310 C.3       8  POP2       -0.0531
   323 H13X        10.3850   -34.3720     2.3280 H         8  POP2        0.0265
   324 H13Y         9.7770   -33.4980     0.8320 H         8  POP2        0.0265
   325 C314         8.5270   -35.0640     1.5480 C.3       8  POP2       -0.0533
   326 H14X         7.5150   -34.5720     1.3230 H         8  POP2        0.0265
   327 H14Y         8.4010   -35.5990     2.5180 H         8  POP2        0.0265
   328 C315         8.8770   -36.0920     0.4140 C.3       8  POP2       -0.0559
   329 H15X         8.1000   -36.8970     0.3160 H         8  POP2        0.0263
   330 H15Y         9.8410   -36.7270     0.6000 H         8  POP2        0.0263
   331 C316         9.2150   -35.4090    -0.8780 C.3       8  POP2       -0.0653
   332 H16X        10.2050   -34.9560    -0.8340 H         8  POP2        0.0230
   333 H16Y         8.5550   -34.5390    -1.1670 H         8  POP2        0.0230
   334 H16Z         9.1570   -36.1510    -1.7110 H         8  POP2        0.0230
   335 N           -6.9780    28.3340    17.7970 N.3       9  POP3        0.2385
   336 C12         -6.2370    29.5460    18.3530 C.3       9  POP3       -0.0064
   337 H12A        -6.1500    29.2530    19.4670 H         9  POP3        0.0838
   338 H12B        -6.8870    30.3920    18.3720 H         9  POP3        0.0838
   339 C13         -7.5800    28.5800    16.4760 C.3       9  POP3       -0.0417
   340 H13A        -8.1110    29.5710    16.4900 H         9  POP3        0.0778
   341 H13B        -6.8500    28.6240    15.7650 H         9  POP3        0.0778
   342 H13C        -8.2510    27.7410    16.2520 H         9  POP3        0.0778
   343 C14         -6.0300    27.2640    17.5840 C.3       9  POP3       -0.0417
   344 H14A        -5.6850    26.9270    18.5710 H         9  POP3        0.0778
   345 H14B        -6.4270    26.3620    17.0880 H         9  POP3        0.0778
   346 H14C        -5.2070    27.6430    17.0290 H         9  POP3        0.0778
   347 C15         -7.9950    27.9710    18.7970 C.3       9  POP3       -0.0417
   348 H15A        -8.7750    28.7780    18.8970 H         9  POP3        0.0778
   349 H15B        -7.6820    27.9340    19.8030 H         9  POP3        0.0778
   350 H15C        -8.4690    27.0440    18.5290 H         9  POP3        0.0778
   351 C11         -4.8580    29.8310    17.7710 C.3       9  POP3        0.0954
   352 H11A        -4.6970    30.9370    18.0960 H         9  POP3        0.0618
   353 H11B        -4.8190    29.9020    16.6330 H         9  POP3        0.0618
   354 P           -2.3950    28.6580    17.8350 P.3       9  POP3        0.2645
   355 O13         -1.9390    27.3620    18.2990 O.co2     9  POP3       -0.5105
   356 O14         -1.6220    29.8470    18.2890 O.co2     9  POP3       -0.5105
   357 O12         -3.8990    28.9050    18.2750 O.3       9  POP3       -0.3154
   358 O11         -2.3880    28.6140    16.2780 O.3       9  POP3       -0.3181
   359 C1          -2.7090    27.4100    15.5260 C.3       9  POP3        0.0845
   360 HA          -3.2370    26.6950    16.1320 H         9  POP3        0.0591
   361 HB          -1.7280    26.9860    15.2390 H         9  POP3        0.0591
   362 C2          -3.5110    27.5550    14.2730 C.3       9  POP3        0.1155
   363 HS          -2.8010    28.0820    13.6600 H         9  POP3        0.0649
   364 O21         -4.5790    28.4860    14.5410 O.3       9  POP3       -0.3072
   365 C21         -4.9550    29.2480    13.4970 C.2       9  POP3        0.2626
   366 O22         -4.5960    29.1470    12.3320 O.2       9  POP3       -0.2650
   367 C22         -5.9900    30.3750    13.8200 C.3       9  POP3        0.0332
   368 H2R         -5.6730    31.3800    13.5240 H         9  POP3        0.0366
   369 H2S         -6.1110    30.4090    14.9190 H         9  POP3        0.0366
   370 C3          -4.0350    26.2330    13.5950 C.3       9  POP3        0.0860
   371 HX          -5.0640    26.1230    14.0420 H         9  POP3        0.0593
   372 HY          -3.4970    25.3690    14.0200 H         9  POP3        0.0593
   373 O31         -4.0740    26.2120    12.1640 O.3       9  POP3       -0.3125
   374 C31         -5.1860    26.4340    11.4170 C.2       9  POP3        0.2622
   375 O32         -6.3140    26.2630    11.8980 O.2       9  POP3       -0.2650
   376 C32         -4.7920    26.8620     9.9930 C.3       9  POP3        0.0332
   377 H2X         -4.0300    26.0880     9.6330 H         9  POP3        0.0366
   378 H2Y         -4.3450    27.8880    10.0340 H         9  POP3        0.0366
   379 C23         -7.3800    30.1670    13.1460 C.3       9  POP3       -0.0441
   380 H3R         -8.1070    30.7050    13.7860 H         9  POP3        0.0270
   381 H3S         -7.5720    29.0690    13.2120 H         9  POP3        0.0270
   382 C24         -7.5410    30.7400    11.7280 C.3       9  POP3       -0.0526
   383 H4R         -6.7840    30.1990    11.1400 H         9  POP3        0.0265
   384 H4S         -7.1410    31.7820    11.6880 H         9  POP3        0.0265
   385 C25         -8.9750    30.6510    11.1080 C.3       9  POP3       -0.0530
   386 H5R         -9.7440    31.1540    11.6940 H         9  POP3        0.0265
   387 H5S         -9.1660    29.5470    11.0060 H         9  POP3        0.0265
   388 C26         -9.0270    31.2400     9.6680 C.3       9  POP3       -0.0528
   389 H6R         -8.3130    30.7580     8.9480 H         9  POP3        0.0265
   390 H6S         -8.6350    32.2410     9.6150 H         9  POP3        0.0265
   391 C27        -10.5410    31.3410     9.2280 C.3       9  POP3       -0.0496
   392 H7R        -10.9100    32.0980     9.9340 H         9  POP3        0.0268
   393 H7S        -11.0520    30.4220     9.4250 H         9  POP3        0.0268
   394 C28        -10.8500    31.9040     7.8000 C.3       9  POP3       -0.0348
   395 H8R        -10.4670    31.1900     7.0110 H         9  POP3        0.0307
   396 H8S        -10.2410    32.8420     7.6930 H         9  POP3        0.0307
   397 C29        -12.2730    32.2260     7.6830 C.2       9  POP3       -0.0879
   398 H91        -12.6470    33.0070     8.3670 H         9  POP3        0.0569
   399 C210       -13.1660    31.4550     7.0290 C.2       9  POP3       -0.0879
   400 H101       -14.2420    31.7280     7.0310 H         9  POP3        0.0569
   401 C211       -12.9610    30.1510     6.2060 C.3       9  POP3       -0.0348
   402 H11R       -13.8330    29.3880     6.4410 H         9  POP3        0.0307
   403 H11S       -12.0870    29.5740     6.5670 H         9  POP3        0.0307
   404 C212       -12.9420    30.2160     4.6670 C.3       9  POP3       -0.0496
   405 H12R       -12.5280    29.2520     4.2740 H         9  POP3        0.0268
   406 H12S       -12.2280    31.0500     4.3650 H         9  POP3        0.0268
   407 C213       -14.2800    30.3490     3.9340 C.3       9  POP3       -0.0528
   408 H13R       -14.7850    31.3080     4.2780 H         9  POP3        0.0265
   409 H13S       -14.9010    29.4480     4.1400 H         9  POP3        0.0265
   410 C214       -14.1660    30.4300     2.4250 C.3       9  POP3       -0.0530
   411 H14R       -13.9330    29.3840     2.1010 H         9  POP3        0.0265
   412 H14S       -13.3100    31.1520     2.1450 H         9  POP3        0.0265
   413 C215       -15.4420    30.7810     1.7400 C.3       9  POP3       -0.0531
   414 H15R       -15.7180    31.7660     1.9910 H         9  POP3        0.0265
   415 H15S       -16.2260    30.0180     2.0660 H         9  POP3        0.0265
   416 C216       -15.3830    30.6190     0.1850 C.3       9  POP3       -0.0533
   417 H16R       -16.3150    30.4050    -0.2290 H         9  POP3        0.0265
   418 H16S       -14.6920    29.7570    -0.1860 H         9  POP3        0.0265
   419 C217       -14.7780    31.8050    -0.5050 C.3       9  POP3       -0.0559
   420 H17R       -14.5170    31.7040    -1.5710 H         9  POP3        0.0263
   421 H17S       -13.8080    31.8320     0.0030 H         9  POP3        0.0263
   422 C218       -15.5430    33.1280    -0.3930 C.3       9  POP3       -0.0653
   423 H18R       -15.2110    33.6250     0.5420 H         9  POP3        0.0230
   424 H18S       -16.6120    32.9140    -0.4350 H         9  POP3        0.0230
   425 H18T       -15.4020    33.8280    -1.2330 H         9  POP3        0.0230
   426 C33         -6.0170    26.9100     8.9950 C.3       9  POP3       -0.0441
   427 H3X         -6.5670    25.9490     9.0470 H         9  POP3        0.0270
   428 H3Y         -5.5440    26.9810     7.9820 H         9  POP3        0.0270
   429 C34         -7.0240    28.0800     9.1920 C.3       9  POP3       -0.0526
   430 H4X         -6.5330    29.0500     9.0820 H         9  POP3        0.0265
   431 H4Y         -7.4140    28.1340    10.2100 H         9  POP3        0.0265
   432 C35         -8.2800    27.8530     8.1880 C.3       9  POP3       -0.0530
   433 H5X         -9.1840    28.3710     8.5700 H         9  POP3        0.0265
   434 H5Y         -8.3980    26.7520     8.2450 H         9  POP3        0.0265
   435 C36         -7.9710    28.3050     6.7120 C.3       9  POP3       -0.0531
   436 H6X         -7.3000    27.5180     6.2740 H         9  POP3        0.0265
   437 H6Y         -7.2130    29.1250     6.7670 H         9  POP3        0.0265
   438 C37         -9.2090    28.3580     5.8550 C.3       9  POP3       -0.0531
   439 H7X         -9.9750    29.0260     6.2430 H         9  POP3        0.0265
   440 H7Y         -9.5720    27.2960     5.8620 H         9  POP3        0.0265
   441 C38         -8.9490    28.7590     4.3950 C.3       9  POP3       -0.0531
   442 H8X         -7.9550    28.4710     4.1370 H         9  POP3        0.0265
   443 H8Y         -9.0370    29.7760     4.2080 H         9  POP3        0.0265
   444 C39        -10.0280    28.0140     3.5130 C.3       9  POP3       -0.0531
   445 H9X        -10.1420    28.5450     2.5230 H         9  POP3        0.0265
   446 H9Y        -10.9650    27.9000     4.0510 H         9  POP3        0.0265
   447 C310        -9.5760    26.5960     3.1090 C.3       9  POP3       -0.0531
   448 H10X        -9.4810    25.9720     4.0320 H         9  POP3        0.0265
   449 H10Y        -8.6340    26.7750     2.5220 H         9  POP3        0.0265
   450 C311       -10.4410    25.9450     1.9740 C.3       9  POP3       -0.0531
   451 H11X       -10.3050    26.6900     1.1070 H         9  POP3        0.0265
   452 H11Y       -11.5370    26.0460     2.1580 H         9  POP3        0.0265
   453 C312        -9.8520    24.5850     1.4910 C.3       9  POP3       -0.0531
   454 H12X        -8.7530    24.5560     1.5950 H         9  POP3        0.0265
   455 H12Y       -10.1460    24.6110     0.4000 H         9  POP3        0.0265
   456 C313       -10.4450    23.4210     2.1790 C.3       9  POP3       -0.0531
   457 H13X       -10.1270    23.5440     3.2490 H         9  POP3        0.0265
   458 H13Y        -9.8720    22.5150     1.8330 H         9  POP3        0.0265
   459 C314       -11.9360    23.0860     1.9110 C.3       9  POP3       -0.0533
   460 H14X       -12.6040    24.0820     1.9610 H         9  POP3        0.0265
   461 H14Y       -12.3720    22.4900     2.7840 H         9  POP3        0.0265
   462 C315       -12.1430    22.2900     0.5890 C.3       9  POP3       -0.0559
   463 H15X       -11.5380    21.3570     0.6820 H         9  POP3        0.0263
   464 H15Y       -11.7210    22.7260    -0.3210 H         9  POP3        0.0263
   465 C316       -13.6420    21.9250     0.4810 C.3       9  POP3       -0.0653
   466 H16X       -13.7520    21.0160     1.1540 H         9  POP3        0.0230
   467 H16Y       -13.8510    21.6710    -0.5550 H         9  POP3        0.0230
   468 H16Z       -14.3220    22.6820     0.8130 H         9  POP3        0.0230
   469 N           16.8420   -30.4240    21.2370 N.3      10  POP4        0.2385
   470 C12         16.8470   -30.6800    19.7710 C.3      10  POP4       -0.0064
   471 H12A        17.0250   -31.7520    19.6440 H        10  POP4        0.0838
   472 H12B        17.5910   -30.1920    19.2300 H        10  POP4        0.0838
   473 C13         17.7650   -31.3180    22.0120 C.3      10  POP4       -0.0417
   474 H13A        18.7980   -31.4090    21.7050 H        10  POP4        0.0778
   475 H13B        17.6930   -31.0730    23.1290 H        10  POP4        0.0778
   476 H13C        17.3890   -32.4150    21.9670 H        10  POP4        0.0778
   477 C14         17.2330   -29.0170    21.4560 C.3      10  POP4       -0.0417
   478 H14A        16.5930   -28.2340    21.0480 H        10  POP4        0.0778
   479 H14B        17.4390   -28.6540    22.5330 H        10  POP4        0.0778
   480 H14C        18.1990   -28.8710    20.9730 H        10  POP4        0.0778
   481 C15         15.4830   -30.6330    21.7890 C.3      10  POP4       -0.0417
   482 H15A        15.1160   -31.6310    21.7700 H        10  POP4        0.0778
   483 H15B        14.7520   -30.0410    21.2140 H        10  POP4        0.0778
   484 H15C        15.6010   -30.3580    22.8600 H        10  POP4        0.0778
   485 C11         15.5490   -30.3510    18.9780 C.3      10  POP4        0.0954
   486 H11A        14.7370   -31.1290    19.2010 H        10  POP4        0.0618
   487 H11B        15.8210   -30.6360    17.9580 H        10  POP4        0.0618
   488 P           13.6320   -28.6940    18.6450 P.3      10  POP4        0.2645
   489 O13         13.1920   -27.4370    19.1880 O.co2    10  POP4       -0.5105
   490 O14         12.8000   -29.8940    18.8580 O.co2    10  POP4       -0.5105
   491 O12         15.0800   -28.9920    19.2250 O.3      10  POP4       -0.3154
   492 O11         13.8520   -28.5360    17.0640 O.3      10  POP4       -0.3181
   493 C1          14.8100   -27.5410    16.7040 C.3      10  POP4        0.0845
   494 HA          15.6740   -27.5470    17.4000 H        10  POP4        0.0591
   495 HB          14.4130   -26.5790    16.8980 H        10  POP4        0.0591
   496 C2          15.3130   -27.6600    15.1860 C.3      10  POP4        0.1155
   497 HS          16.0790   -26.9470    14.9700 H        10  POP4        0.0649
   498 O21         14.2220   -27.5590    14.2400 O.3      10  POP4       -0.3072
   499 C21         13.8210   -26.2850    13.9030 C.2      10  POP4        0.2626
   500 O22         14.4410   -25.2930    14.3840 O.2      10  POP4       -0.2650
   501 C22         12.5760   -26.2600    12.8740 C.3      10  POP4        0.0332
   502 H2R         11.8860   -26.8970    13.3780 H        10  POP4        0.0366
   503 H2S         12.8730   -26.6600    11.8890 H        10  POP4        0.0366
   504 C3          15.9630   -29.1420    15.0350 C.3      10  POP4        0.0860
   505 HX          15.3160   -29.8130    15.6070 H        10  POP4        0.0593
   506 HY          16.9890   -29.0730    15.5410 H        10  POP4        0.0593
   507 O31         16.0250   -29.5290    13.6480 O.3      10  POP4       -0.3125
   508 C31         16.6290   -30.6860    13.4680 C.2      10  POP4        0.2622
   509 O32         17.2880   -31.2880    14.3010 O.2      10  POP4       -0.2650
   510 C32         16.3970   -31.2090    12.0330 C.3      10  POP4        0.0332
   511 H2X         16.7190   -32.2260    12.1410 H        10  POP4        0.0366
   512 H2Y         17.0150   -30.7020    11.3550 H        10  POP4        0.0366
   513 C23         11.9740   -24.9240    12.5850 C.3      10  POP4       -0.0441
   514 H3R         12.6050   -24.2620    12.0020 H        10  POP4        0.0270
   515 H3S         11.7500   -24.4640    13.5370 H        10  POP4        0.0270
   516 C24         10.6930   -24.9970    11.7680 C.3      10  POP4       -0.0526
   517 H4R         10.2200   -24.0820    11.9830 H        10  POP4        0.0265
   518 H4S         10.0710   -25.8220    12.0940 H        10  POP4        0.0265
   519 C25         10.8630   -25.1670    10.2460 C.3      10  POP4       -0.0530
   520 H5R         11.2430   -26.2920     9.9800 H        10  POP4        0.0265
   521 H5S         11.6840   -24.4620    10.0050 H        10  POP4        0.0265
   522 C26          9.5910   -24.8030     9.4380 C.3      10  POP4       -0.0528
   523 H6R          9.4740   -23.7280     9.6350 H        10  POP4        0.0265
   524 H6S          8.6800   -25.3400     9.8700 H        10  POP4        0.0265
   525 C27          9.8120   -25.0480     7.9700 C.3      10  POP4       -0.0496
   526 H7R          9.7480   -26.1530     7.7340 H        10  POP4        0.0268
   527 H7S         10.8100   -24.5440     7.7580 H        10  POP4        0.0268
   528 C28          8.5670   -24.4310     7.2090 C.3      10  POP4       -0.0348
   529 H8R          8.2700   -23.4060     7.6370 H        10  POP4        0.0307
   530 H8S          7.7280   -25.0900     7.5260 H        10  POP4        0.0307
   531 C29          8.7320   -24.4920     5.7210 C.2      10  POP4       -0.0879
   532 H91          9.1480   -23.6110     5.2590 H        10  POP4        0.0569
   533 C210         8.3920   -25.4050     4.9550 C.2      10  POP4       -0.0879
   534 H101         8.5590   -25.1710     3.8630 H        10  POP4        0.0569
   535 C211         7.6090   -26.6890     5.3350 C.3      10  POP4       -0.0348
   536 H11R         7.9220   -26.9180     6.4030 H        10  POP4        0.0307
   537 H11S         7.9070   -27.5540     4.6680 H        10  POP4        0.0307
   538 C212         6.1140   -26.4480     5.1810 C.3      10  POP4       -0.0496
   539 H12R         5.8490   -25.5210     5.7300 H        10  POP4        0.0268
   540 H12S         5.4730   -27.2580     5.5830 H        10  POP4        0.0268
   541 C213         5.6220   -26.4100     3.7290 C.3      10  POP4       -0.0528
   542 H13R         5.8490   -27.3980     3.3040 H        10  POP4        0.0265
   543 H13S         6.1590   -25.7270     3.1250 H        10  POP4        0.0265
   544 C214         4.1090   -26.0690     3.6700 C.3      10  POP4       -0.0530
   545 H14R         3.8950   -25.0650     3.9440 H        10  POP4        0.0265
   546 H14S         3.5480   -26.8090     4.3170 H        10  POP4        0.0265
   547 C215         3.5280   -26.3050     2.2970 C.3      10  POP4       -0.0531
   548 H15R         3.8930   -27.2690     1.8660 H        10  POP4        0.0265
   549 H15S         3.9800   -25.5180     1.6200 H        10  POP4        0.0265
   550 C216         1.9960   -26.3430     2.2640 C.3      10  POP4       -0.0533
   551 H16R         1.4770   -26.0730     3.2530 H        10  POP4        0.0265
   552 H16S         1.7850   -27.4440     2.1520 H        10  POP4        0.0265
   553 C217         1.2990   -25.5440     1.1240 C.3      10  POP4       -0.0559
   554 H17R         1.7710   -25.8900     0.1690 H        10  POP4        0.0263
   555 H17S         1.6370   -24.4720     1.2530 H        10  POP4        0.0263
   556 C218        -0.1940   -25.8210     1.1560 C.3      10  POP4       -0.0653
   557 H18R        -0.4370   -26.9220     1.0740 H        10  POP4        0.0230
   558 H18S        -0.6630   -25.4010     0.2230 H        10  POP4        0.0230
   559 H18T        -0.7540   -25.5220     2.1030 H        10  POP4        0.0230
   560 C33         14.9740   -31.1530    11.5360 C.3      10  POP4       -0.0441
   561 H3X         14.6010   -30.1790    11.3570 H        10  POP4        0.0270
   562 H3Y         14.3470   -31.7170    12.2480 H        10  POP4        0.0270
   563 C34         14.7960   -31.8720    10.1750 C.3      10  POP4       -0.0526
   564 H4X         15.4230   -31.2170     9.4480 H        10  POP4        0.0265
   565 H4Y         13.7130   -31.7100     9.8740 H        10  POP4        0.0265
   566 C35         15.0580   -33.3640    10.0780 C.3      10  POP4       -0.0530
   567 H5X         14.5870   -33.7200    10.8950 H        10  POP4        0.0265
   568 H5Y         16.1190   -33.3970    10.2390 H        10  POP4        0.0265
   569 C36         14.4280   -33.9670     8.8090 C.3      10  POP4       -0.0531
   570 H6X         13.3040   -33.9380     8.7830 H        10  POP4        0.0265
   571 H6Y         14.7110   -35.0350     8.9290 H        10  POP4        0.0265
   572 C37         14.9400   -33.3250     7.4830 C.3      10  POP4       -0.0531
   573 H7X         16.0020   -33.6960     7.4140 H        10  POP4        0.0265
   574 H7Y         14.9250   -32.2360     7.6160 H        10  POP4        0.0265
   575 C38         14.1370   -33.7850     6.2810 C.3      10  POP4       -0.0531
   576 H8X         13.0250   -33.6990     6.4240 H        10  POP4        0.0265
   577 H8Y         14.4050   -34.8400     6.3670 H        10  POP4        0.0265
   578 C39         14.5440   -33.0990     4.9360 C.3      10  POP4       -0.0531
   579 H9X         14.0700   -33.7230     4.1100 H        10  POP4        0.0265
   580 H9Y         15.6230   -33.1310     4.8370 H        10  POP4        0.0265
   581 C310        14.1050   -31.6810     4.8150 C.3      10  POP4       -0.0531
   582 H10X        14.1580   -31.1250     5.8430 H        10  POP4        0.0265
   583 H10Y        13.0450   -31.7240     4.4430 H        10  POP4        0.0265
   584 C311        14.8020   -30.8810     3.6540 C.3      10  POP4       -0.0531
   585 H11X        14.2580   -29.9840     3.3580 H        10  POP4        0.0265
   586 H11Y        14.9320   -31.4300     2.7190 H        10  POP4        0.0265
   587 C312        16.2320   -30.5660     4.1440 C.3      10  POP4       -0.0531
   588 H12X        16.7920   -31.4950     4.2460 H        10  POP4        0.0265
   589 H12Y        16.1750   -30.0850     5.1010 H        10  POP4        0.0265
   590 C313        16.9330   -29.6640     3.1210 C.3      10  POP4       -0.0531
   591 H13X        16.2310   -28.8900     2.7650 H        10  POP4        0.0265
   592 H13Y        17.3320   -30.2820     2.2250 H        10  POP4        0.0265
   593 C314        18.1810   -28.9570     3.7060 C.3      10  POP4       -0.0533
   594 H14X        18.8100   -29.7510     4.2270 H        10  POP4        0.0265
   595 H14Y        17.7870   -28.2910     4.5000 H        10  POP4        0.0265
   596 C315        19.1300   -28.2830     2.6600 C.3      10  POP4       -0.0559
   597 H15X        19.7000   -29.0360     2.0840 H        10  POP4        0.0263
   598 H15Y        19.9560   -27.8520     3.3080 H        10  POP4        0.0263
   599 C316        18.5260   -27.2590     1.8000 C.3      10  POP4       -0.0653
   600 H16X        17.9650   -27.7890     0.9890 H        10  POP4        0.0230
   601 H16Y        19.2400   -26.6700     1.2330 H        10  POP4        0.0230
   602 H16Z        17.8010   -26.6370     2.3740 H        10  POP4        0.0230
   603 N            1.3630   -27.4290    19.1420 N.3      11  POP5        0.2385
   604 C12          1.1960   -25.9300    19.3540 C.3      11  POP5       -0.0064
   605 H12A         0.1830   -25.6770    19.7290 H        11  POP5        0.0838
   606 H12B         1.2350   -25.4010    18.3890 H        11  POP5        0.0838
   607 C13          1.0900   -28.1610    20.3570 C.3      11  POP5       -0.0417
   608 H13A         1.7340   -27.8250    21.2340 H        11  POP5        0.0778
   609 H13B         0.0310   -27.8790    20.5840 H        11  POP5        0.0778
   610 H13C         1.1740   -29.2490    20.3160 H        11  POP5        0.0778
   611 C14          0.4100   -27.9860    18.1110 C.3      11  POP5       -0.0417
   612 H14A         0.5520   -29.0120    17.8600 H        11  POP5        0.0778
   613 H14B        -0.6240   -27.7640    18.3300 H        11  POP5        0.0778
   614 H14C         0.6510   -27.5430    17.1820 H        11  POP5        0.0778
   615 C15          2.7270   -27.7530    18.7350 C.3      11  POP5       -0.0417
   616 H15A         3.0130   -28.8170    18.7130 H        11  POP5        0.0778
   617 H15B         3.4070   -27.2740    19.4230 H        11  POP5        0.0778
   618 H15C         2.9680   -27.3570    17.7450 H        11  POP5        0.0778
   619 C11          2.1760   -25.3090    20.3720 C.3      11  POP5        0.0954
   620 H11A         3.0700   -25.1880    19.7450 H        11  POP5        0.0618
   621 H11B         2.5060   -26.0040    21.2350 H        11  POP5        0.0618
   622 P            2.3840   -22.7520    21.1250 P.3      11  POP5        0.2645
   623 O13          3.7990   -22.8810    20.8910 O.co2    11  POP5       -0.5105
   624 O14          2.0440   -22.3340    22.5310 O.co2    11  POP5       -0.5105
   625 O12          1.6280   -24.0820    20.7950 O.3      11  POP5       -0.3154
   626 O11          1.7150   -21.7390    20.0960 O.3      11  POP5       -0.3181
   627 C1           0.7870   -22.2070    19.0770 C.3      11  POP5        0.0845
   628 HA          -0.1170   -22.5320    19.6100 H        11  POP5        0.0591
   629 HB           1.1940   -23.1880    18.6310 H        11  POP5        0.0591
   630 C2           0.6840   -21.2110    17.9080 C.3      11  POP5        0.1155
   631 HS           0.1260   -21.6610    17.0520 H        11  POP5        0.0649
   632 O21          2.0300   -20.7460    17.5990 O.3      11  POP5       -0.3072
   633 C21          2.5090   -21.4900    16.6540 C.2      11  POP5        0.2626
   634 O22          1.8850   -22.3290    16.0260 O.2      11  POP5       -0.2650
   635 C22          3.9080   -21.0500    16.3820 C.3      11  POP5        0.0332
   636 H2R          4.4660   -21.6230    17.1480 H        11  POP5        0.0366
   637 H2S          4.1230   -19.9310    16.6040 H        11  POP5        0.0366
   638 C3          -0.1430   -19.9000    18.3140 C.3      11  POP5        0.0860
   639 HX           0.4030   -19.3700    19.1280 H        11  POP5        0.0593
   640 HY          -1.0720   -20.2330    18.7220 H        11  POP5        0.0593
   641 O31         -0.3790   -19.0740    17.1660 O.3      11  POP5       -0.3125
   642 C31         -1.4010   -19.3950    16.3570 C.2      11  POP5        0.2622
   643 O32         -2.1670   -20.3550    16.5270 O.2      11  POP5       -0.2650
   644 C32         -1.2680   -18.4810    15.1270 C.3      11  POP5        0.0332
   645 H2X         -0.3290   -18.7200    14.6030 H        11  POP5        0.0366
   646 H2Y         -1.3510   -17.4580    15.5460 H        11  POP5        0.0366
   647 C23          4.4020   -21.4550    15.0100 C.3      11  POP5       -0.0441
   648 H3R          3.8560   -22.3570    14.6110 H        11  POP5        0.0270
   649 H3S          5.5030   -21.7600    15.1200 H        11  POP5        0.0270
   650 C24          4.3770   -20.2180    14.1560 C.3      11  POP5       -0.0526
   651 H4R          4.9610   -20.3070    13.1570 H        11  POP5        0.0265
   652 H4S          4.9250   -19.4330    14.7170 H        11  POP5        0.0265
   653 C25          2.9510   -19.8670    13.8250 C.3      11  POP5       -0.0530
   654 H5R          2.2570   -19.4800    14.6230 H        11  POP5        0.0265
   655 H5S          2.5220   -20.7800    13.3600 H        11  POP5        0.0265
   656 C26          2.8070   -18.7550    12.6970 C.3      11  POP5       -0.0528
   657 H6R          3.2230   -17.8300    13.1910 H        11  POP5        0.0265
   658 H6S          1.7560   -18.5560    12.6850 H        11  POP5        0.0265
   659 C27          3.4260   -19.1430    11.3560 C.3      11  POP5       -0.0496
   660 H7R          4.4840   -19.2790    11.4050 H        11  POP5        0.0268
   661 H7S          3.1570   -18.2650    10.6470 H        11  POP5        0.0268
   662 C28          2.7860   -20.4040    10.6500 C.3      11  POP5       -0.0348
   663 H8R          2.8870   -21.3510    11.2530 H        11  POP5        0.0307
   664 H8S          3.3050   -20.4820     9.6310 H        11  POP5        0.0307
   665 C29          1.3640   -20.1960    10.3490 C.2      11  POP5       -0.0879
   666 H91          0.8490   -19.4720    11.0240 H        11  POP5        0.0569
   667 C210         0.6850   -20.7280     9.3520 C.2      11  POP5       -0.0879
   668 H101        -0.4000   -20.5380     9.4060 H        11  POP5        0.0569
   669 C211         1.1340   -21.6800     8.3360 C.3      11  POP5       -0.0348
   670 H11R         0.6110   -22.5810     8.5500 H        11  POP5        0.0307
   671 H11S         2.1740   -21.8670     8.3850 H        11  POP5        0.0307
   672 C212         0.8960   -21.1920     6.8960 C.3      11  POP5       -0.0496
   673 H12R         1.4970   -20.2620     6.8350 H        11  POP5        0.0268
   674 H12S        -0.1730   -21.0500     6.7950 H        11  POP5        0.0268
   675 C213         1.4240   -22.2430     5.9090 C.3      11  POP5       -0.0528
   676 H13R         0.9290   -23.1920     5.8320 H        11  POP5        0.0265
   677 H13S         2.4460   -22.4310     6.1790 H        11  POP5        0.0265
   678 C214         1.3910   -21.6900     4.4420 C.3      11  POP5       -0.0530
   679 H14R         2.4630   -21.8290     4.1760 H        11  POP5        0.0265
   680 H14S         1.2040   -20.5850     4.5100 H        11  POP5        0.0265
   681 C215         0.3640   -22.5110     3.6310 C.3      11  POP5       -0.0531
   682 H15R        -0.6120   -22.4780     4.2580 H        11  POP5        0.0265
   683 H15S         0.5760   -23.5870     3.5210 H        11  POP5        0.0265
   684 C216         0.0440   -21.8580     2.2760 C.3      11  POP5       -0.0533
   685 H16R        -0.2510   -22.5810     1.5810 H        11  POP5        0.0265
   686 H16S         1.0130   -21.2710     2.0950 H        11  POP5        0.0265
   687 C217        -0.8910   -20.6830     2.3940 C.3      11  POP5       -0.0559
   688 H17R        -0.4240   -19.9780     3.2860 H        11  POP5        0.0263
   689 H17S        -1.8850   -21.0750     2.6580 H        11  POP5        0.0263
   690 C218        -1.0230   -19.8460     1.1180 C.3      11  POP5       -0.0653
   691 H18R        -0.1350   -19.4790     0.6280 H        11  POP5        0.0230
   692 H18S        -1.5950   -18.9340     1.4340 H        11  POP5        0.0230
   693 H18T        -1.6080   -20.4320     0.3280 H        11  POP5        0.0230
   694 C33         -2.4930   -18.8180    14.1900 C.3      11  POP5       -0.0441
   695 H3X         -3.4290   -18.5920    14.7750 H        11  POP5        0.0270
   696 H3Y         -2.5630   -19.8910    13.8680 H        11  POP5        0.0270
   697 C34         -2.4470   -17.9980    12.8530 C.3      11  POP5       -0.0526
   698 H4X         -1.5250   -18.1850    12.2230 H        11  POP5        0.0265
   699 H4Y         -2.5840   -16.8640    13.0070 H        11  POP5        0.0265
   700 C35         -3.4520   -18.4450    11.8020 C.3      11  POP5       -0.0530
   701 H5X         -4.4780   -18.4590    12.1630 H        11  POP5        0.0265
   702 H5Y         -3.2060   -19.4690    11.4710 H        11  POP5        0.0265
   703 C36         -3.4410   -17.5790    10.5780 C.3      11  POP5       -0.0531
   704 H6X         -3.3130   -16.4880    10.7850 H        11  POP5        0.0265
   705 H6Y         -4.4490   -17.7380    10.1470 H        11  POP5        0.0265
   706 C37         -2.3350   -17.9410     9.5480 C.3      11  POP5       -0.0531
   707 H7X         -2.3690   -19.0690     9.4480 H        11  POP5        0.0265
   708 H7Y         -1.2860   -17.6820     9.7960 H        11  POP5        0.0265
   709 C38         -2.6210   -17.2620     8.2020 C.3      11  POP5       -0.0531
   710 H8X         -2.5090   -16.1370     8.3650 H        11  POP5        0.0265
   711 H8Y         -3.5910   -17.4970     7.9260 H        11  POP5        0.0265
   712 C39         -1.6240   -17.7110     7.1150 C.3      11  POP5       -0.0531
   713 H9X         -1.4060   -18.7780     7.0770 H        11  POP5        0.0265
   714 H9Y         -0.5870   -17.1250     7.3180 H        11  POP5        0.0265
   715 C310        -2.0840   -17.1730     5.7430 C.3      11  POP5       -0.0531
   716 H10X        -2.1340   -16.1200     5.8220 H        11  POP5        0.0265
   717 H10Y        -3.1030   -17.6050     5.4860 H        11  POP5        0.0265
   718 C311        -1.1660   -17.3440     4.5180 C.3      11  POP5       -0.0531
   719 H11X        -1.3610   -16.4220     3.9960 H        11  POP5        0.0265
   720 H11Y        -1.4400   -18.1880     3.8120 H        11  POP5        0.0265
   721 C312         0.3950   -17.3710     4.8030 C.3      11  POP5       -0.0531
   722 H12X         0.6840   -18.1500     5.4700 H        11  POP5        0.0265
   723 H12Y         0.5720   -16.5800     5.5190 H        11  POP5        0.0265
   724 C313         1.2590   -17.3450     3.5160 C.3      11  POP5       -0.0531
   725 H13X         1.0780   -18.2540     2.9250 H        11  POP5        0.0265
   726 H13Y         2.3430   -17.4070     3.8720 H        11  POP5        0.0265
   727 C314         1.0080   -16.0290     2.6620 C.3      11  POP5       -0.0533
   728 H14X         1.0740   -15.2580     3.4990 H        11  POP5        0.0265
   729 H14Y         0.0380   -16.0240     2.2430 H        11  POP5        0.0265
   730 C315         2.0940   -15.8590     1.5660 C.3      11  POP5       -0.0559
   731 H15X         3.0250   -16.1820     1.9770 H        11  POP5        0.0263
   732 H15Y         2.0120   -14.8000     1.3040 H        11  POP5        0.0263
   733 C316         1.8150   -16.6620     0.3220 C.3      11  POP5       -0.0653
   734 H16X         2.5990   -16.4080    -0.4330 H        11  POP5        0.0230
   735 H16Y         0.7960   -16.4060     0.0050 H        11  POP5        0.0230
   736 H16Z         1.8710   -17.7890     0.5590 H        11  POP5        0.0230
   737 N            9.0680    31.9350    18.1560 N.3      12  POP6        0.2385
   738 C12          9.7650    32.8010    19.1410 C.3      12  POP6       -0.0064
   739 H12A         9.1300    33.5940    19.5090 H        12  POP6        0.0838
   740 H12B        10.5920    33.3630    18.6370 H        12  POP6        0.0838
   741 C13          9.8060    30.6730    17.8540 C.3      12  POP6       -0.0417
   742 H13A        10.6540    30.8540    17.2080 H        12  POP6        0.0778
   743 H13B        10.2980    30.3130    18.7840 H        12  POP6        0.0778
   744 H13C         9.1530    29.9270    17.4300 H        12  POP6        0.0778
   745 C14          7.6630    31.6480    18.6140 C.3      12  POP6       -0.0417
   746 H14A         7.2190    32.6160    18.8390 H        12  POP6        0.0778
   747 H14B         7.1680    31.0920    17.8770 H        12  POP6        0.0778
   748 H14C         7.6840    31.0820    19.4920 H        12  POP6        0.0778
   749 C15          8.9810    32.6810    16.7980 C.3      12  POP6       -0.0417
   750 H15A         8.0870    33.2150    16.9430 H        12  POP6        0.0778
   751 H15B         8.8040    31.8940    16.0410 H        12  POP6        0.0778
   752 H15C         9.7290    33.3200    16.5030 H        12  POP6        0.0778
   753 C11         10.3330    32.1170    20.4980 C.3      12  POP6        0.0954
   754 H11A         9.4730    31.7380    21.0510 H        12  POP6        0.0618
   755 H11B        10.6250    32.8300    21.2330 H        12  POP6        0.0618
   756 P           12.7920    31.2830    19.9930 P.3      12  POP6        0.2645
   757 O13         13.4260    30.0450    20.5880 O.co2    12  POP6       -0.5105
   758 O14         13.2200    32.5690    20.5780 O.co2    12  POP6       -0.5105
   759 O12         11.2730    31.0160    20.1910 O.3      12  POP6       -0.3154
   760 O11         13.0140    31.2920    18.4240 O.3      12  POP6       -0.3181
   761 C1          12.9440    32.4760    17.7010 C.3      12  POP6        0.0845
   762 HA          13.5430    33.2760    18.0830 H        12  POP6        0.0591
   763 HB          11.8870    32.8730    17.7610 H        12  POP6        0.0591
   764 C2          13.2470    32.0710    16.2040 C.3      12  POP6        0.1155
   765 HS          12.4600    31.3220    16.0030 H        12  POP6        0.0649
   766 O21         14.5890    31.5280    16.1600 O.3      12  POP6       -0.3072
   767 C21         14.8490    30.5270    15.2840 C.2      12  POP6        0.2626
   768 O22         14.0110    30.0270    14.5590 O.2      12  POP6       -0.2650
   769 C22         16.2880    30.0400    15.4160 C.3      12  POP6        0.0332
   770 H2R         16.1790    28.9100    15.5430 H        12  POP6        0.0366
   771 H2S         16.7580    30.5110    16.3710 H        12  POP6        0.0366
   772 C3          13.1460    33.2870    15.1840 C.3      12  POP6        0.0860
   773 HX          13.9790    33.9350    15.3970 H        12  POP6        0.0593
   774 HY          12.1880    33.8000    15.5040 H        12  POP6        0.0593
   775 O31         13.1840    32.8500    13.8180 O.3      12  POP6       -0.3125
   776 C31         12.0240    32.2520    13.3730 C.2      12  POP6        0.2622
   777 O32         11.0380    32.0320    14.0930 O.2      12  POP6       -0.2650
   778 C32         12.0750    31.9910    11.9060 C.3      12  POP6        0.0332
   779 H2X         12.8060    31.0990    11.7150 H        12  POP6        0.0366
   780 H2Y         12.4910    32.9140    11.3540 H        12  POP6        0.0366
   781 C23         17.1680    30.2770    14.1420 C.3      12  POP6       -0.0441
   782 H3R         18.2340    30.0780    14.2770 H        12  POP6        0.0270
   783 H3S         17.0490    31.3670    13.8090 H        12  POP6        0.0270
   784 C24         16.8620    29.3390    12.9910 C.3      12  POP6       -0.0526
   785 H4R         15.7140    29.2840    12.7190 H        12  POP6        0.0265
   786 H4S         17.0750    28.3570    13.4260 H        12  POP6        0.0265
   787 C25         17.8890    29.6690    11.8830 C.3      12  POP6       -0.0530
   788 H5R         18.9080    29.3990    12.1120 H        12  POP6        0.0265
   789 H5S         17.8680    30.7110    11.8850 H        12  POP6        0.0265
   790 C26         17.6590    29.1120    10.4720 C.3      12  POP6       -0.0528
   791 H6R         16.5640    29.2920    10.1970 H        12  POP6        0.0265
   792 H6S         17.7500    28.0540    10.2680 H        12  POP6        0.0265
   793 C27         18.5540    29.7690     9.3990 C.3      12  POP6       -0.0496
   794 H7R         19.5780    29.7080     9.7840 H        12  POP6        0.0268
   795 H7S         18.2670    30.8300     9.3600 H        12  POP6        0.0268
   796 C28         18.5260    29.2780     7.9510 C.3      12  POP6       -0.0348
   797 H8R         18.7900    28.1360     8.0650 H        12  POP6        0.0307
   798 H8S         19.3870    29.8240     7.5030 H        12  POP6        0.0307
   799 C29         17.2180    29.4260     7.1570 C.2      12  POP6       -0.0879
   800 H91         16.3080    29.5130     7.7640 H        12  POP6        0.0569
   801 C210        17.0380    29.2320     5.8580 C.2      12  POP6       -0.0879
   802 H101        16.0520    29.2100     5.3790 H        12  POP6        0.0569
   803 C211        18.1570    29.0150     4.7790 C.3      12  POP6       -0.0348
   804 H11R        17.9600    28.0460     4.3490 H        12  POP6        0.0307
   805 H11S        19.1660    28.9590     5.2010 H        12  POP6        0.0307
   806 C212        18.2930    30.1500     3.7220 C.3      12  POP6       -0.0496
   807 H12R        19.0290    29.9480     2.9870 H        12  POP6        0.0268
   808 H12S        18.5750    31.0550     4.3020 H        12  POP6        0.0268
   809 C213        16.9110    30.3030     2.9550 C.3      12  POP6       -0.0528
   810 H13R        16.2180    30.8270     3.6970 H        12  POP6        0.0265
   811 H13S        16.4560    29.2080     2.7430 H        12  POP6        0.0265
   812 C214        17.0840    31.0730     1.6850 C.3      12  POP6       -0.0530
   813 H14R        17.4740    30.3610     0.9270 H        12  POP6        0.0265
   814 H14S        17.8960    31.8290     1.7140 H        12  POP6        0.0265
   815 C215        15.8990    31.9260     1.2170 C.3      12  POP6       -0.0531
   816 H15R        16.3760    32.8150     0.7850 H        12  POP6        0.0265
   817 H15S        15.1400    32.2170     2.0990 H        12  POP6        0.0265
   818 C216        15.0860    31.3560     0.0980 C.3      12  POP6       -0.0533
   819 H16R        14.5580    30.5150     0.4860 H        12  POP6        0.0265
   820 H16S        15.6840    30.9500    -0.7720 H        12  POP6        0.0265
   821 C217        13.9200    32.2940    -0.2290 C.3      12  POP6       -0.0559
   822 H17R        13.4650    32.7290     0.6900 H        12  POP6        0.0263
   823 H17S        13.0930    31.6950    -0.6720 H        12  POP6        0.0263
   824 C218        14.1520    33.3230    -1.3780 C.3      12  POP6       -0.0653
   825 H18R        14.3160    32.7650    -2.2900 H        12  POP6        0.0230
   826 H18S        15.0070    33.9430    -1.1350 H        12  POP6        0.0230
   827 H18T        13.2850    34.0150    -1.5140 H        12  POP6        0.0230
   828 C33         10.6650    31.6870    11.5080 C.3      12  POP6       -0.0441
   829 H3X          9.9860    32.5700    11.7670 H        12  POP6        0.0270
   830 H3Y         10.2880    30.7310    11.9200 H        12  POP6        0.0270
   831 C34         10.3760    31.5610     9.9960 C.3      12  POP6       -0.0526
   832 H4X         10.7340    30.5850     9.7030 H        12  POP6        0.0265
   833 H4Y         11.0310    32.1840     9.3750 H        12  POP6        0.0265
   834 C35          8.8940    31.7460     9.5910 C.3      12  POP6       -0.0530
   835 H5X          8.5480    32.8490     9.6950 H        12  POP6        0.0265
   836 H5Y          8.2730    31.1150    10.2180 H        12  POP6        0.0265
   837 C36          8.5640    31.2540     8.2030 C.3      12  POP6       -0.0531
   838 H6X          8.6510    30.1810     8.2740 H        12  POP6        0.0265
   839 H6Y          9.3640    31.5800     7.5410 H        12  POP6        0.0265
   840 C37          7.1710    31.5870     7.7130 C.3      12  POP6       -0.0531
   841 H7X          6.9880    32.6860     7.8900 H        12  POP6        0.0265
   842 H7Y          6.3320    31.0700     8.3360 H        12  POP6        0.0265
   843 C38          6.9950    31.2080     6.2110 C.3      12  POP6       -0.0531
   844 H8X          7.6270    30.3020     5.9290 H        12  POP6        0.0265
   845 H8Y          7.5100    31.9860     5.6900 H        12  POP6        0.0265
   846 C39          5.5990    31.1270     5.6880 C.3      12  POP6       -0.0531
   847 H9X          4.9890    31.9840     6.1420 H        12  POP6        0.0265
   848 H9Y          5.2080    30.1240     6.0450 H        12  POP6        0.0265
   849 C310         5.4480    31.1660     4.1350 C.3      12  POP6       -0.0531
   850 H10X         6.1560    30.3360     3.8690 H        12  POP6        0.0265
   851 H10Y         5.8600    32.1660     3.8020 H        12  POP6        0.0265
   852 C311         4.0620    30.9550     3.4940 C.3      12  POP6       -0.0531
   853 H11X         3.4130    31.7670     3.8950 H        12  POP6        0.0265
   854 H11Y         3.6460    30.0630     4.0230 H        12  POP6        0.0265
   855 C312         4.1320    30.9450     1.9970 C.3      12  POP6       -0.0531
   856 H12X         4.8470    30.1610     1.6520 H        12  POP6        0.0265
   857 H12Y         4.5400    31.9550     1.7440 H        12  POP6        0.0265
   858 C313         2.8040    30.7560     1.2060 C.3      12  POP6       -0.0531
   859 H13X         2.0040    31.4350     1.6290 H        12  POP6        0.0265
   860 H13Y         2.4500    29.7090     1.3060 H        12  POP6        0.0265
   861 C314         3.0700    31.1600    -0.2500 C.3      12  POP6       -0.0533
   862 H14X         3.7460    30.4240    -0.7270 H        12  POP6        0.0265
   863 H14Y         3.5990    32.1410    -0.2670 H        12  POP6        0.0265
   864 C315         1.8690    31.3370    -1.1730 C.3      12  POP6       -0.0559
   865 H15X         1.3180    30.3900    -1.0180 H        12  POP6        0.0263
   866 H15Y         2.3090    31.4440    -2.1740 H        12  POP6        0.0263
   867 C316         1.0110    32.5040    -0.8200 C.3      12  POP6       -0.0653
   868 H16X         1.5640    33.4690    -0.8060 H        12  POP6        0.0230
   869 H16Y         0.5600    32.3050     0.1330 H        12  POP6        0.0230
   870 H16Z         0.1950    32.5870    -1.5760 H        12  POP6        0.0230
   871 N           -0.2790   -17.6450    24.4650 N.3      13  POP7        0.2385
   872 C12          0.0150   -18.0460    23.0250 C.3      13  POP7       -0.0064
   873 H12A         1.0340   -17.6460    22.8640 H        13  POP7        0.0838
   874 H12B        -0.6650   -17.4890    22.5030 H        13  POP7        0.0838
   875 C13         -1.6710   -17.9610    24.8480 C.3      13  POP7       -0.0417
   876 H13A        -2.1380   -18.8870    24.4330 H        13  POP7        0.0778
   877 H13B        -1.6990   -17.9880    25.9760 H        13  POP7        0.0778
   878 H13C        -2.4960   -17.2520    24.5810 H        13  POP7        0.0778
   879 C14          0.6750   -18.3510    25.3430 C.3      13  POP7       -0.0417
   880 H14A         1.6780   -18.0140    25.0870 H        13  POP7        0.0778
   881 H14B         0.6340   -18.1500    26.3910 H        13  POP7        0.0778
   882 H14C         0.6310   -19.4290    25.2420 H        13  POP7        0.0778
   883 C15         -0.0710   -16.1300    24.5540 C.3      13  POP7       -0.0417
   884 H15A         0.0580   -15.8360    25.5290 H        13  POP7        0.0778
   885 H15B        -0.8540   -15.5360    24.1640 H        13  POP7        0.0778
   886 H15C         0.8410   -15.7990    24.0710 H        13  POP7        0.0778
   887 C11         -0.0480   -19.5520    22.6720 C.3      13  POP7        0.0954
   888 H11A         0.7260   -20.2070    23.1430 H        13  POP7        0.0618
   889 H11B         0.2800   -19.6500    21.5250 H        13  POP7        0.0618
   890 P           -2.3050   -20.1650    21.6950 P.3      13  POP7        0.2645
   891 O13         -3.6320   -20.3410    22.3860 O.co2    13  POP7       -0.5105
   892 O14         -2.0060   -21.1670    20.6830 O.co2    13  POP7       -0.5105
   893 O12         -1.2300   -20.1710    22.9160 O.3      13  POP7       -0.3154
   894 O11         -2.1880   -18.6800    21.0990 O.3      13  POP7       -0.3181
   895 C1          -3.2000   -17.6900    21.1820 C.3      13  POP7        0.0845
   896 HA          -2.9580   -16.9160    21.9490 H        13  POP7        0.0591
   897 HB          -4.2020   -18.1180    21.4130 H        13  POP7        0.0591
   898 C2          -3.3640   -17.0210    19.7750 C.3      13  POP7        0.1155
   899 HS          -4.0190   -16.1150    19.8450 H        13  POP7        0.0649
   900 O21         -3.7450   -18.0310    18.8280 O.3      13  POP7       -0.3072
   901 C21         -5.0420   -18.3030    18.8010 C.2      13  POP7        0.2626
   902 O22         -5.8380   -17.8330    19.6060 O.2      13  POP7       -0.2650
   903 C22         -5.3360   -19.2510    17.5860 C.3      13  POP7        0.0332
   904 H2R         -5.8020   -20.2100    17.8640 H        13  POP7        0.0366
   905 H2S         -4.3490   -19.5040    17.1090 H        13  POP7        0.0366
   906 C3          -2.0800   -16.3260    19.2640 C.3      13  POP7        0.0860
   907 HX          -1.3320   -17.1260    19.1570 H        13  POP7        0.0593
   908 HY          -1.6350   -15.6840    20.0240 H        13  POP7        0.0593
   909 O31         -2.3500   -15.7020    17.9620 O.3      13  POP7       -0.3125
   910 C31         -2.6190   -14.3820    18.0380 C.2      13  POP7        0.2622
   911 O32         -2.7550   -13.7420    19.0470 O.2      13  POP7       -0.2650
   912 C32         -2.9660   -13.9390    16.6170 C.3      13  POP7        0.0332
   913 H2X         -2.0000   -13.8360    16.1020 H        13  POP7        0.0366
   914 H2Y         -3.3770   -12.9580    16.6210 H        13  POP7        0.0366
   915 C23         -6.3940   -18.6660    16.7060 C.3      13  POP7       -0.0441
   916 H3R         -5.9670   -17.8110    16.1380 H        13  POP7        0.0270
   917 H3S         -7.2700   -18.3250    17.2930 H        13  POP7        0.0270
   918 C24         -6.9070   -19.6030    15.5310 C.3      13  POP7       -0.0526
   919 H4R         -7.7700   -19.2200    14.9110 H        13  POP7        0.0265
   920 H4S         -7.2310   -20.5300    16.0550 H        13  POP7        0.0265
   921 C25         -5.7740   -20.0810    14.5330 C.3      13  POP7       -0.0530
   922 H5R         -4.8730   -20.4560    15.1120 H        13  POP7        0.0265
   923 H5S         -5.4770   -19.1750    13.9510 H        13  POP7        0.0265
   924 C26         -6.2650   -21.1480    13.5900 C.3      13  POP7       -0.0528
   925 H6R         -7.1640   -20.7290    13.0610 H        13  POP7        0.0265
   926 H6S         -6.6690   -21.9690    14.2760 H        13  POP7        0.0265
   927 C27         -5.2270   -21.6840    12.6450 C.3      13  POP7       -0.0496
   928 H7R         -4.6520   -22.5130    13.1110 H        13  POP7        0.0268
   929 H7S         -4.5710   -20.8350    12.4730 H        13  POP7        0.0268
   930 C28         -5.8840   -22.1590    11.3100 C.3      13  POP7       -0.0348
   931 H8R         -6.4000   -21.2700    10.8520 H        13  POP7        0.0307
   932 H8S         -6.7710   -22.8160    11.5100 H        13  POP7        0.0307
   933 C29         -4.9340   -22.8330    10.3510 C.2      13  POP7       -0.0879
   934 H91         -4.1150   -23.3550    10.7760 H        13  POP7        0.0569
   935 C210        -4.9140   -22.4980     8.9960 C.2      13  POP7       -0.0879
   936 H101        -4.1340   -22.8150     8.2760 H        13  POP7        0.0569
   937 C211        -5.9140   -21.6040     8.1850 C.3      13  POP7       -0.0348
   938 H11R        -6.7930   -21.5510     8.8290 H        13  POP7        0.0307
   939 H11S        -6.2860   -22.0920     7.2440 H        13  POP7        0.0307
   940 C212        -5.4430   -20.2510     7.9080 C.3      13  POP7       -0.0496
   941 H12R        -4.8660   -19.8340     8.8060 H        13  POP7        0.0268
   942 H12S        -6.3550   -19.6780     7.6570 H        13  POP7        0.0268
   943 C213        -4.6450   -20.2730     6.6350 C.3      13  POP7       -0.0528
   944 H13R        -3.8170   -21.0350     6.6980 H        13  POP7        0.0265
   945 H13S        -4.0850   -19.3330     6.5240 H        13  POP7        0.0265
   946 C214        -5.4610   -20.4270     5.3040 C.3      13  POP7       -0.0530
   947 H14R        -6.0930   -19.5170     5.1710 H        13  POP7        0.0265
   948 H14S        -6.0970   -21.2600     5.4600 H        13  POP7        0.0265
   949 C215        -4.6000   -20.5660     4.0720 C.3      13  POP7       -0.0531
   950 H15R        -3.7000   -21.1070     4.3660 H        13  POP7        0.0265
   951 H15S        -4.4490   -19.5530     3.5900 H        13  POP7        0.0265
   952 C216        -5.3770   -21.3790     3.0200 C.3      13  POP7       -0.0533
   953 H16R        -6.4160   -21.0320     3.0000 H        13  POP7        0.0265
   954 H16S        -5.4960   -22.4530     3.2970 H        13  POP7        0.0265
   955 C217        -4.8170   -21.2790     1.5740 C.3      13  POP7       -0.0559
   956 H17R        -3.9730   -22.0380     1.3670 H        13  POP7        0.0263
   957 H17S        -4.5010   -20.1920     1.4050 H        13  POP7        0.0263
   958 C218        -5.8460   -21.6270     0.5560 C.3      13  POP7       -0.0653
   959 H18R        -6.8000   -21.0200     0.7220 H        13  POP7        0.0230
   960 H18S        -6.1220   -22.7110     0.5340 H        13  POP7        0.0230
   961 H18T        -5.4160   -21.4480    -0.4230 H        13  POP7        0.0230
   962 C33         -4.0400   -14.8690    15.9210 C.3      13  POP7       -0.0441
   963 H3X         -5.0750   -14.6860    16.2310 H        13  POP7        0.0270
   964 H3Y         -3.9220   -15.9200    16.2170 H        13  POP7        0.0270
   965 C34         -3.8940   -14.6910    14.4330 C.3      13  POP7       -0.0526
   966 H4X         -4.2880   -15.6340    13.9900 H        13  POP7        0.0265
   967 H4Y         -2.8110   -14.7750    14.1700 H        13  POP7        0.0265
   968 C35         -4.6260   -13.5500    13.6600 C.3      13  POP7       -0.0530
   969 H5X         -4.3580   -12.6500    14.2380 H        13  POP7        0.0265
   970 H5Y         -5.6650   -13.8460    13.8710 H        13  POP7        0.0265
   971 C36         -4.4560   -13.5180    12.1640 C.3      13  POP7       -0.0531
   972 H6X         -5.1960   -12.7680    11.7900 H        13  POP7        0.0265
   973 H6Y         -4.7230   -14.5390    11.7350 H        13  POP7        0.0265
   974 C37         -3.0940   -13.1040    11.6190 C.3      13  POP7       -0.0531
   975 H7X         -2.2970   -13.7600    12.0530 H        13  POP7        0.0265
   976 H7Y         -2.7080   -12.0950    11.9300 H        13  POP7        0.0265
   977 C38         -2.9200   -13.2370    10.0480 C.3      13  POP7       -0.0531
   978 H8X         -3.1310   -14.3080     9.7230 H        13  POP7        0.0265
   979 H8Y         -1.8710   -12.9540     9.7890 H        13  POP7        0.0265
   980 C39         -3.8110   -12.4010     9.1800 C.3      13  POP7       -0.0531
   981 H9X         -3.7890   -11.3230     9.4040 H        13  POP7        0.0265
   982 H9Y         -4.8620   -12.7170     9.3090 H        13  POP7        0.0265
   983 C310        -3.3340   -12.5900     7.7080 C.3      13  POP7       -0.0531
   984 H10X        -3.3520   -13.6880     7.4390 H        13  POP7        0.0265
   985 H10Y        -2.2860   -12.3370     7.5520 H        13  POP7        0.0265
   986 C311        -4.1520   -11.8530     6.6830 C.3      13  POP7       -0.0531
   987 H11X        -4.1610   -10.7910     7.1180 H        13  POP7        0.0265
   988 H11Y        -5.2220   -12.2730     6.7300 H        13  POP7        0.0265
   989 C312        -3.6900   -11.9300     5.2250 C.3      13  POP7       -0.0531
   990 H12X        -3.8080   -12.9530     4.9150 H        13  POP7        0.0265
   991 H12Y        -2.5830   -11.7670     5.1480 H        13  POP7        0.0265
   992 C313        -4.3150   -10.8900     4.2700 C.3      13  POP7       -0.0531
   993 H13X        -3.6130   -10.9440     3.3440 H        13  POP7        0.0265
   994 H13Y        -4.3100    -9.9180     4.6890 H        13  POP7        0.0265
   995 C314        -5.7740   -11.1900     3.8740 C.3      13  POP7       -0.0533
   996 H14X        -6.3670   -11.0390     4.7390 H        13  POP7        0.0265
   997 H14Y        -5.9420   -12.2520     3.5810 H        13  POP7        0.0265
   998 C315        -6.3870   -10.4350     2.7480 C.3      13  POP7       -0.0559
   999 H15X        -5.7870   -10.6780     1.8580 H        13  POP7        0.0263
  1000 H15Y        -6.2040    -9.3940     2.9820 H        13  POP7        0.0263
  1001 C316        -7.8850   -10.6560     2.3530 C.3      13  POP7       -0.0653
  1002 H16X        -8.0780   -11.7090     2.1990 H        13  POP7        0.0230
  1003 H16Y        -8.1860   -10.0810     1.5200 H        13  POP7        0.0230
  1004 H16Z        -8.4800   -10.3520     3.1980 H        13  POP7        0.0230
  1005 N          -10.9680   -22.9940    20.3480 N.3      14  POP8        0.2385
  1006 C12        -11.4760   -23.3160    18.9920 C.3      14  POP8       -0.0064
  1007 H12A       -10.7140   -22.9520    18.3320 H        14  POP8        0.0838
  1008 H12B       -12.2520   -22.6730    18.6870 H        14  POP8        0.0838
  1009 C13        -11.8620   -23.5710    21.4360 C.3      14  POP8       -0.0417
  1010 H13A       -11.9390   -24.7110    21.0980 H        14  POP8        0.0778
  1011 H13B       -11.2970   -23.6580    22.3600 H        14  POP8        0.0778
  1012 H13C       -12.9050   -23.2820    21.4720 H        14  POP8        0.0778
  1013 C14         -9.5960   -23.5670    20.5780 C.3      14  POP8       -0.0417
  1014 H14A        -9.7380   -24.6270    20.7570 H        14  POP8        0.0778
  1015 H14B        -8.9050   -23.3690    19.7660 H        14  POP8        0.0778
  1016 H14C        -9.1930   -23.2350    21.5460 H        14  POP8        0.0778
  1017 C15        -10.9450   -21.5060    20.5180 C.3      14  POP8       -0.0417
  1018 H15A       -10.7640   -21.2610    21.6180 H        14  POP8        0.0778
  1019 H15B       -11.8910   -21.0490    20.1700 H        14  POP8        0.0778
  1020 H15C       -10.1850   -21.0160    19.9040 H        14  POP8        0.0778
  1021 C11        -11.9900   -24.7160    18.6190 C.3      14  POP8        0.0954
  1022 H11A       -12.5060   -24.6790    17.6510 H        14  POP8        0.0618
  1023 H11B       -12.7410   -25.1200    19.3060 H        14  POP8        0.0618
  1024 P           -9.8040   -25.7100    17.4310 P.3      14  POP8        0.2645
  1025 O13         -9.7520   -27.1520    17.0710 O.co2    14  POP8       -0.5105
  1026 O14         -8.5680   -25.0500    17.8360 O.co2    14  POP8       -0.5105
  1027 O12        -10.8640   -25.6400    18.5400 O.3      14  POP8       -0.3154
  1028 O11        -10.3070   -24.9780    16.0780 O.3      14  POP8       -0.3181
  1029 C1          -9.3270   -25.2590    14.9860 C.3      14  POP8        0.0845
  1030 HA          -8.6860   -26.1210    15.0200 H        14  POP8        0.0591
  1031 HB          -8.6690   -24.2930    14.9700 H        14  POP8        0.0591
  1032 C2          -9.9730   -25.2670    13.5900 C.3      14  POP8        0.1155
  1033 HS         -10.5780   -26.1560    13.3230 H        14  POP8        0.0649
  1034 O21         -8.9360   -25.0800    12.6430 O.3      14  POP8       -0.3072
  1035 C21         -8.3610   -26.1920    12.2540 C.2      14  POP8        0.2626
  1036 O22         -8.5350   -27.2910    12.6770 O.2      14  POP8       -0.2650
  1037 C22         -7.5240   -25.8400    10.9880 C.3      14  POP8        0.0332
  1038 H2R         -6.5160   -25.8220    11.3990 H        14  POP8        0.0366
  1039 H2S         -7.8390   -24.7900    10.6020 H        14  POP8        0.0366
  1040 C3         -11.0250   -24.0130    13.4370 C.3      14  POP8        0.0860
  1041 HX         -10.4790   -23.0710    13.6120 H        14  POP8        0.0593
  1042 HY         -11.8210   -24.0610    14.1810 H        14  POP8        0.0593
  1043 O31        -11.6280   -23.8470    12.1330 O.3      14  POP8       -0.3125
  1044 C31        -12.5890   -24.7830    11.7530 C.2      14  POP8        0.2622
  1045 O32        -13.1110   -25.5230    12.5830 O.2      14  POP8       -0.2650
  1046 C32        -12.8550   -24.7540    10.2850 C.3      14  POP8        0.0332
  1047 H2X        -12.5460   -25.7300    10.0120 H        14  POP8        0.0366
  1048 H2Y        -11.9870   -24.2330     9.7660 H        14  POP8        0.0366
  1049 C23         -7.7760   -26.8790     9.8850 C.3      14  POP8       -0.0441
  1050 H3R         -8.7540   -26.6510     9.3810 H        14  POP8        0.0270
  1051 H3S         -7.6790   -27.9190    10.2910 H        14  POP8        0.0270
  1052 C24         -6.7150   -26.9160     8.7310 C.3      14  POP8       -0.0526
  1053 H4R         -6.7430   -27.7290     8.0610 H        14  POP8        0.0265
  1054 H4S         -5.6920   -26.7760     9.1450 H        14  POP8        0.0265
  1055 C25         -6.8560   -25.6850     7.7710 C.3      14  POP8       -0.0530
  1056 H5R         -5.9860   -25.8620     7.1090 H        14  POP8        0.0265
  1057 H5S         -6.6940   -24.6920     8.2730 H        14  POP8        0.0265
  1058 C26         -8.0440   -25.5350     6.8830 C.3      14  POP8       -0.0528
  1059 H6R         -9.0470   -25.5000     7.3270 H        14  POP8        0.0265
  1060 H6S         -7.9330   -26.4570     6.1680 H        14  POP8        0.0265
  1061 C27         -7.9020   -24.2920     5.9610 C.3      14  POP8       -0.0496
  1062 H7R         -7.0090   -24.3670     5.4050 H        14  POP8        0.0268
  1063 H7S         -7.7870   -23.3500     6.5520 H        14  POP8        0.0268
  1064 C28         -9.0330   -24.2290     4.8870 C.3      14  POP8       -0.0348
  1065 H8R         -9.8850   -24.2500     5.5900 H        14  POP8        0.0307
  1066 H8S         -9.1860   -25.1760     4.3420 H        14  POP8        0.0307
  1067 C29         -9.1530   -23.0570     3.9410 C.2      14  POP8       -0.0879
  1068 H91         -8.2110   -22.8780     3.2890 H        14  POP8        0.0569
  1069 C210       -10.2300   -22.2910     3.6620 C.2      14  POP8       -0.0879
  1070 H101       -10.0500   -21.4490     3.0490 H        14  POP8        0.0569
  1071 C211       -11.5730   -22.3190     4.2550 C.3      14  POP8       -0.0348
  1072 H11R       -11.8450   -21.3280     4.5300 H        14  POP8        0.0307
  1073 H11S       -11.4630   -22.9400     5.2030 H        14  POP8        0.0307
  1074 C212       -12.5710   -23.0470     3.3040 C.3      14  POP8       -0.0496
  1075 H12R       -13.4980   -23.1730     3.8920 H        14  POP8        0.0268
  1076 H12S       -12.2000   -24.0140     2.9290 H        14  POP8        0.0268
  1077 C213       -12.9770   -22.1070     2.1200 C.3      14  POP8       -0.0528
  1078 H13R       -12.0490   -21.9500     1.5350 H        14  POP8        0.0265
  1079 H13S       -13.3960   -21.1410     2.4930 H        14  POP8        0.0265
  1080 C214       -13.9470   -22.9430     1.3590 C.3      14  POP8       -0.0530
  1081 H14R       -14.9030   -23.0920     1.9900 H        14  POP8        0.0265
  1082 H14S       -13.3940   -23.9040     1.0720 H        14  POP8        0.0265
  1083 C215       -14.4220   -22.3160     0.0350 C.3      14  POP8       -0.0531
  1084 H15R       -13.5320   -21.8560    -0.4390 H        14  POP8        0.0265
  1085 H15S       -15.1000   -21.5400     0.2800 H        14  POP8        0.0265
  1086 C216       -15.1690   -23.2730    -0.9360 C.3      14  POP8       -0.0533
  1087 H16R       -15.6700   -22.6620    -1.7690 H        14  POP8        0.0265
  1088 H16S       -15.9970   -23.7570    -0.3940 H        14  POP8        0.0265
  1089 C217       -14.4040   -24.4970    -1.4560 C.3      14  POP8       -0.0559
  1090 H17R       -14.0830   -25.1530    -0.6280 H        14  POP8        0.0263
  1091 H17S       -13.5510   -24.2130    -2.0960 H        14  POP8        0.0263
  1092 C218       -15.3540   -25.3390    -2.3340 C.3      14  POP8       -0.0653
  1093 H18R       -15.6820   -24.8340    -3.2370 H        14  POP8        0.0230
  1094 H18S       -16.2820   -25.5220    -1.7550 H        14  POP8        0.0230
  1095 H18T       -14.9430   -26.2990    -2.5090 H        14  POP8        0.0230
  1096 C33        -14.2410   -24.3350     9.9020 C.3      14  POP8       -0.0441
  1097 H3X        -14.5990   -23.3240    10.3790 H        14  POP8        0.0270
  1098 H3Y        -14.9310   -25.1340    10.2580 H        14  POP8        0.0270
  1099 C34        -14.6320   -24.2130     8.3640 C.3      14  POP8       -0.0526
  1100 H4X        -14.4170   -23.2850     7.8660 H        14  POP8        0.0265
  1101 H4Y        -15.7500   -24.2330     8.3400 H        14  POP8        0.0265
  1102 C35        -14.2540   -25.4780     7.5220 C.3      14  POP8       -0.0530
  1103 H5X        -15.1170   -25.5520     6.7810 H        14  POP8        0.0265
  1104 H5Y        -14.1750   -26.3830     8.1630 H        14  POP8        0.0265
  1105 C36        -12.9810   -25.1690     6.8090 C.3      14  POP8       -0.0531
  1106 H6X        -12.3140   -24.8020     7.6040 H        14  POP8        0.0265
  1107 H6Y        -13.1430   -24.3880     6.0730 H        14  POP8        0.0265
  1108 C37        -12.2410   -26.4210     6.1940 C.3      14  POP8       -0.0531
  1109 H7X        -11.2020   -26.1670     5.8910 H        14  POP8        0.0265
  1110 H7Y        -12.8130   -26.6790     5.3420 H        14  POP8        0.0265
  1111 C38        -12.0140   -27.5790     7.2330 C.3      14  POP8       -0.0531
  1112 H8X        -12.9930   -27.8840     7.7400 H        14  POP8        0.0265
  1113 H8Y        -11.3900   -27.0750     7.9240 H        14  POP8        0.0265
  1114 C39        -11.1840   -28.7730     6.7430 C.3      14  POP8       -0.0531
  1115 H9X        -10.1780   -28.3640     6.4920 H        14  POP8        0.0265
  1116 H9Y        -11.5960   -29.1990     5.7990 H        14  POP8        0.0265
  1117 C310       -11.0370   -29.8960     7.7450 C.3      14  POP8       -0.0531
  1118 H10X       -10.6120   -30.7240     7.2750 H        14  POP8        0.0265
  1119 H10Y       -12.0050   -30.2110     8.0720 H        14  POP8        0.0265
  1120 C311        -9.9540   -29.5290     8.8010 C.3      14  POP8       -0.0531
  1121 H11X       -10.1970   -28.6010     9.4150 H        14  POP8        0.0265
  1122 H11Y        -8.9120   -29.3340     8.3980 H        14  POP8        0.0265
  1123 C312       -10.1080   -30.6120     9.9530 C.3      14  POP8       -0.0531
  1124 H12X       -10.1020   -31.6500     9.4500 H        14  POP8        0.0265
  1125 H12Y       -11.0050   -30.4830    10.4670 H        14  POP8        0.0265
  1126 C313        -9.0210   -30.5140    11.0300 C.3      14  POP8       -0.0531
  1127 H13X        -9.4290   -31.2110    11.8470 H        14  POP8        0.0265
  1128 H13Y        -8.9210   -29.4940    11.4470 H        14  POP8        0.0265
  1129 C314        -7.6300   -31.0540    10.6260 C.3      14  POP8       -0.0533
  1130 H14X        -6.9880   -30.3360    10.1110 H        14  POP8        0.0265
  1131 H14Y        -7.7130   -31.9340     9.9220 H        14  POP8        0.0265
  1132 C315        -6.9070   -31.3820    11.9800 C.3      14  POP8       -0.0559
  1133 H15X        -7.6160   -31.8250    12.7350 H        14  POP8        0.0263
  1134 H15Y        -6.6720   -30.4000    12.5640 H        14  POP8        0.0263
  1135 C316        -5.6400   -32.1760    11.7870 C.3      14  POP8       -0.0653
  1136 H16X        -5.3600   -32.7150    12.6930 H        14  POP8        0.0230
  1137 H16Y        -4.7740   -31.5490    11.5390 H        14  POP8        0.0230
  1138 H16Z        -5.8170   -32.8170    10.9580 H        14  POP8        0.0230
  1139 N            9.5720    24.8910    23.5850 N.3      15  POP9        0.2385
  1140 C12          9.5200    23.6550    22.6910 C.3      15  POP9       -0.0064
  1141 H12A         8.7820    22.9290    23.0740 H        15  POP9        0.0838
  1142 H12B        10.4330    23.0540    22.7350 H        15  POP9        0.0838
  1143 C13          9.1590    24.4140    25.0450 C.3      15  POP9       -0.0417
  1144 H13A         8.3780    23.6770    24.9580 H        15  POP9        0.0778
  1145 H13B        10.0110    23.9920    25.4900 H        15  POP9        0.0778
  1146 H13C         8.7410    25.2750    25.5750 H        15  POP9        0.0778
  1147 C14         10.9340    25.4320    23.6290 C.3      15  POP9       -0.0417
  1148 H14A        11.6570    24.7820    24.0550 H        15  POP9        0.0778
  1149 H14B        11.1930    25.6760    22.5700 H        15  POP9        0.0778
  1150 H14C        10.9700    26.3670    24.2930 H        15  POP9        0.0778
  1151 C15          8.5990    25.8840    23.1330 C.3      15  POP9       -0.0417
  1152 H15A         8.7370    26.1840    22.1010 H        15  POP9        0.0778
  1153 H15B         8.7570    26.8000    23.6340 H        15  POP9        0.0778
  1154 H15C         7.5230    25.5710    23.2490 H        15  POP9        0.0778
  1155 C11          9.3710    23.8780    21.1490 C.3      15  POP9        0.0954
  1156 H11A         8.2690    24.0840    20.9480 H        15  POP9        0.0618
  1157 H11B         9.5980    22.8770    20.7280 H        15  POP9        0.0618
  1158 P            9.8420    25.7780    19.4010 P.3      15  POP9        0.2645
  1159 O13         11.0480    26.4960    19.0030 O.co2    15  POP9       -0.5105
  1160 O14          8.7810    26.5960    20.0700 O.co2    15  POP9       -0.5105
  1161 O12         10.2820    24.8050    20.5480 O.3      15  POP9       -0.3154
  1162 O11          9.2250    24.8240    18.2350 O.3      15  POP9       -0.3181
  1163 C1          10.1010    23.8100    17.7490 C.3      15  POP9        0.0845
  1164 HA           9.4800    22.9690    17.4610 H        15  POP9        0.0591
  1165 HB          10.8790    23.4310    18.4150 H        15  POP9        0.0591
  1166 C2          10.9470    24.2200    16.5080 C.3      15  POP9        0.1155
  1167 HS          11.3660    25.1610    16.6920 H        15  POP9        0.0649
  1168 O21         10.0700    24.2930    15.3480 O.3      15  POP9       -0.3072
  1169 C21         10.2440    25.2930    14.5050 C.2      15  POP9        0.2626
  1170 O22         11.0670    26.2120    14.6170 O.2      15  POP9       -0.2650
  1171 C22          9.3220    25.0880    13.2440 C.3      15  POP9        0.0332
  1172 H2R          8.3870    25.4730    13.5440 H        15  POP9        0.0366
  1173 H2S          9.1360    24.0390    13.1480 H        15  POP9        0.0366
  1174 C3          12.0340    23.1560    16.1600 C.3      15  POP9        0.0860
  1175 HX          11.4440    22.2840    15.7410 H        15  POP9        0.0593
  1176 HY          12.5150    22.9140    17.1600 H        15  POP9        0.0593
  1177 O31         12.9300    23.7080    15.1670 O.3      15  POP9       -0.3125
  1178 C31         13.7490    24.6330    15.6440 C.2      15  POP9        0.2622
  1179 O32         13.6060    25.3460    16.6060 O.2      15  POP9       -0.2650
  1180 C32         14.9350    24.9050    14.7280 C.3      15  POP9        0.0332
  1181 H2X         15.1580    24.0600    14.0090 H        15  POP9        0.0366
  1182 H2Y         15.7800    25.0010    15.4920 H        15  POP9        0.0366
  1183 C23         10.0110    25.6260    11.9910 C.3      15  POP9       -0.0441
  1184 H3R         11.1350    25.4250    11.8530 H        15  POP9        0.0270
  1185 H3S          9.7550    26.6830    11.8610 H        15  POP9        0.0270
  1186 C24          9.4860    24.9670    10.7530 C.3      15  POP9       -0.0526
  1187 H4R          8.4140    24.8830    10.8470 H        15  POP9        0.0265
  1188 H4S         10.0050    23.9390    10.6530 H        15  POP9        0.0265
  1189 C25          9.9660    25.7790     9.4800 C.3      15  POP9       -0.0530
  1190 H5R         11.0870    25.6750     9.5640 H        15  POP9        0.0265
  1191 H5S          9.6930    26.8940     9.4450 H        15  POP9        0.0265
  1192 C26          9.4100    25.0310     8.2360 C.3      15  POP9       -0.0528
  1193 H6R          8.2740    25.1290     8.2740 H        15  POP9        0.0265
  1194 H6S          9.5780    23.9170     8.2280 H        15  POP9        0.0265
  1195 C27          9.8740    25.6710     6.8150 C.3      15  POP9       -0.0496
  1196 H7R         10.9190    25.3820     6.6370 H        15  POP9        0.0268
  1197 H7S          9.8330    26.7530     6.9960 H        15  POP9        0.0268
  1198 C28          9.0080    25.2410     5.6650 C.3      15  POP9       -0.0348
  1199 H8R          7.9400    25.4940     5.8620 H        15  POP9        0.0307
  1200 H8S          8.9920    24.1420     5.5460 H        15  POP9        0.0307
  1201 C29          9.4880    25.7260     4.3100 C.2      15  POP9       -0.0879
  1202 H91         10.4420    25.2870     4.1190 H        15  POP9        0.0569
  1203 C210         8.9720    26.7370     3.6300 C.2      15  POP9       -0.0879
  1204 H101         9.4410    27.0680     2.7130 H        15  POP9        0.0569
  1205 C211         7.6540    27.5130     3.9880 C.3      15  POP9       -0.0348
  1206 H11R         7.9100    28.6090     3.9770 H        15  POP9        0.0307
  1207 H11S         7.2110    27.3350     4.9510 H        15  POP9        0.0307
  1208 C212         6.6790    27.3100     2.7830 C.3      15  POP9       -0.0496
  1209 H12R         7.1510    27.7050     1.8460 H        15  POP9        0.0268
  1210 H12S         5.6980    27.8760     2.9570 H        15  POP9        0.0268
  1211 C213         6.1820    25.8850     2.6830 C.3      15  POP9       -0.0528
  1212 H13R         5.7560    25.3640     3.6630 H        15  POP9        0.0265
  1213 H13S         7.0630    25.3330     2.2110 H        15  POP9        0.0265
  1214 C214         4.9440    25.7130     1.7000 C.3      15  POP9       -0.0530
  1215 H14R         4.2190    26.5010     2.1160 H        15  POP9        0.0265
  1216 H14S         4.3590    24.8590     1.7950 H        15  POP9        0.0265
  1217 C215         5.2050    26.0890     0.2540 C.3      15  POP9       -0.0531
  1218 H15R         6.1860    25.6370     0.0320 H        15  POP9        0.0265
  1219 H15S         5.4450    27.1890     0.2160 H        15  POP9        0.0265
  1220 C216         4.1790    25.6170    -0.7770 C.3      15  POP9       -0.0533
  1221 H16R         3.9160    24.5080    -0.6040 H        15  POP9        0.0265
  1222 H16S         4.6570    25.8250    -1.7200 H        15  POP9        0.0265
  1223 C217         2.9530    26.5280    -0.7580 C.3      15  POP9       -0.0559
  1224 H17R         3.3730    27.5110    -0.9430 H        15  POP9        0.0263
  1225 H17S         2.5540    26.5650     0.3470 H        15  POP9        0.0263
  1226 C218         1.7890    26.2280    -1.7060 C.3      15  POP9       -0.0653
  1227 H18R         1.1630    27.0530    -1.5080 H        15  POP9        0.0230
  1228 H18S         1.2580    25.2790    -1.4300 H        15  POP9        0.0230
  1229 H18T         2.0940    26.0500    -2.7890 H        15  POP9        0.0230
  1230 C33         14.9240    26.2310    13.9060 C.3      15  POP9       -0.0441
  1231 H3X         15.9370    26.4800    13.5210 H        15  POP9        0.0270
  1232 H3Y         14.5270    26.9580    14.6140 H        15  POP9        0.0270
  1233 C34         14.1720    26.0810    12.5760 C.3      15  POP9       -0.0526
  1234 H4X         13.0860    25.9080    12.6720 H        15  POP9        0.0265
  1235 H4Y         14.5370    25.1570    12.0080 H        15  POP9        0.0265
  1236 C35         14.3290    27.2720    11.6140 C.3      15  POP9       -0.0530
  1237 H5X         15.3770    27.4710    11.3670 H        15  POP9        0.0265
  1238 H5Y         13.9290    28.1410    12.1720 H        15  POP9        0.0265
  1239 C36         13.5350    27.1650    10.2960 C.3      15  POP9       -0.0531
  1240 H6X         12.5250    27.0480    10.6580 H        15  POP9        0.0265
  1241 H6Y         13.7130    26.2610     9.6140 H        15  POP9        0.0265
  1242 C37         13.6070    28.4300     9.4040 C.3      15  POP9       -0.0531
  1243 H7X         14.4930    28.4130     8.7950 H        15  POP9        0.0265
  1244 H7Y         13.6440    29.3320    10.0400 H        15  POP9        0.0265
  1245 C38         12.2210    28.4390     8.5360 C.3      15  POP9       -0.0531
  1246 H8X         11.3610    28.8090     9.1840 H        15  POP9        0.0265
  1247 H8Y         11.9060    27.4450     8.1840 H        15  POP9        0.0265
  1248 C39         12.2840    29.4230     7.3640 C.3      15  POP9       -0.0531
  1249 H9X         13.3000    29.3580     6.9210 H        15  POP9        0.0265
  1250 H9Y         12.2030    30.4900     7.7010 H        15  POP9        0.0265
  1251 C310        11.2380    29.0440     6.2850 C.3      15  POP9       -0.0531
  1252 H10X        10.3160    29.1110     6.9000 H        15  POP9        0.0265
  1253 H10Y        11.3400    28.0760     5.9110 H        15  POP9        0.0265
  1254 C311        10.8940    30.0920     5.1960 C.3      15  POP9       -0.0531
  1255 H11X        10.9680    31.0830     5.7310 H        15  POP9        0.0265
  1256 H11Y         9.8900    29.9880     4.7780 H        15  POP9        0.0265
  1257 C312        12.0840    30.1270     4.2070 C.3      15  POP9       -0.0531
  1258 H12X        13.1570    30.1750     4.7160 H        15  POP9        0.0265
  1259 H12Y        11.9590    31.0890     3.6720 H        15  POP9        0.0265
  1260 C313        12.1320    28.9400     3.2540 C.3      15  POP9       -0.0531
  1261 H13X        11.0970    28.8560     2.8360 H        15  POP9        0.0265
  1262 H13Y        12.4370    28.0270     3.9050 H        15  POP9        0.0265
  1263 C314        13.0240    29.0700     2.0860 C.3      15  POP9       -0.0533
  1264 H14X        13.8480    29.7190     2.4420 H        15  POP9        0.0265
  1265 H14Y        12.6290    29.6730     1.2310 H        15  POP9        0.0265
  1266 C315        13.5650    27.6940     1.5870 C.3      15  POP9       -0.0559
  1267 H15X        12.6980    27.1550     1.1930 H        15  POP9        0.0263
  1268 H15Y        13.9710    27.0820     2.4210 H        15  POP9        0.0263
  1269 C316        14.7520    27.8530     0.6330 C.3      15  POP9       -0.0653
  1270 H16X        14.3520    28.4870    -0.2210 H        15  POP9        0.0230
  1271 H16Y        15.1040    26.9370     0.1880 H        15  POP9        0.0230
  1272 H16Z        15.6120    28.4460     1.0610 H        15  POP9        0.0230
  1273 N            1.4160    30.4490    19.4270 N.3      16  POP10       0.2385
  1274 C12          0.7430    31.6600    18.7580 C.3      16  POP10      -0.0064
  1275 H12A         0.4910    32.3540    19.5500 H        16  POP10       0.0838
  1276 H12B        -0.1730    31.2940    18.3150 H        16  POP10       0.0838
  1277 C13          0.6320    29.8880    20.5380 C.3      16  POP10      -0.0417
  1278 H13A         1.1220    29.1000    21.0450 H        16  POP10       0.0778
  1279 H13B         0.3500    30.6110    21.2990 H        16  POP10       0.0778
  1280 H13C        -0.3560    29.5390    20.2580 H        16  POP10       0.0778
  1281 C14          1.4720    29.3790    18.3970 C.3      16  POP10      -0.0417
  1282 H14A         1.7900    28.4380    18.8410 H        16  POP10       0.0778
  1283 H14B         0.4720    29.1690    18.0060 H        16  POP10       0.0778
  1284 H14C         2.0830    29.6230    17.6010 H        16  POP10       0.0778
  1285 C15          2.7240    30.8880    19.9270 C.3      16  POP10      -0.0417
  1286 H15A         3.1880    30.1540    20.5560 H        16  POP10       0.0778
  1287 H15B         2.4990    31.7580    20.5520 H        16  POP10       0.0778
  1288 H15C         3.4670    31.1600    19.1130 H        16  POP10       0.0778
  1289 C11          1.5680    32.3210    17.6040 C.3      16  POP10       0.0954
  1290 H11A         0.8930    32.8960    16.9040 H        16  POP10       0.0618
  1291 H11B         2.0780    31.5500    16.9540 H        16  POP10       0.0618
  1292 P            2.6820    34.6220    18.4550 P.3      16  POP10       0.2645
  1293 O13          3.9390    34.9880    19.1350 O.co2    16  POP10      -0.5105
  1294 O14          1.5320    34.8650    19.3490 O.co2    16  POP10      -0.5105
  1295 O12          2.7040    33.1690    17.9320 O.3      16  POP10      -0.3154
  1296 O11          2.5740    35.4600    17.1350 O.3      16  POP10      -0.3181
  1297 C1           3.3770    35.1430    16.0010 C.3      16  POP10       0.0845
  1298 HA           4.3230    34.6260    16.2490 H        16  POP10       0.0591
  1299 HB           3.7420    36.0050    15.4010 H        16  POP10       0.0591
  1300 C2           2.5960    34.3240    14.8550 C.3      16  POP10       0.1155
  1301 HS           2.2170    33.3690    15.3690 H        16  POP10       0.0649
  1302 O21          3.4320    34.0470    13.6970 O.3      16  POP10      -0.3072
  1303 C21          4.3940    33.1830    13.9100 C.2      16  POP10       0.2626
  1304 O22          4.6750    32.6730    14.9720 O.2      16  POP10      -0.2650
  1305 C22          5.2260    33.1750    12.6100 C.3      16  POP10       0.0332
  1306 H2R          6.2210    32.9620    12.9410 H        16  POP10       0.0366
  1307 H2S          5.2440    34.2320    12.1730 H        16  POP10       0.0366
  1308 C3           1.4200    35.1670    14.3610 C.3      16  POP10       0.0860
  1309 HX           1.8610    36.2090    14.1970 H        16  POP10       0.0593
  1310 HY           0.6790    35.3660    15.1760 H        16  POP10       0.0593
  1311 O31          0.6840    34.8180    13.1860 O.3      16  POP10      -0.3125
  1312 C31         -0.1640    33.8240    13.3670 C.2      16  POP10       0.2622
  1313 O32         -0.3670    33.2330    14.4570 O.2      16  POP10      -0.2650
  1314 C32         -0.9420    33.4860    12.0910 C.3      16  POP10       0.0332
  1315 H2X         -0.1800    33.2230    11.3000 H        16  POP10       0.0366
  1316 H2Y         -1.4100    34.3410    11.5850 H        16  POP10       0.0366
  1317 C23          4.7460    32.1590    11.5040 C.3      16  POP10      -0.0441
  1318 H3R          4.5340    31.2170    11.9720 H        16  POP10       0.0270
  1319 H3S          5.5500    32.0430    10.7730 H        16  POP10       0.0270
  1320 C24          3.5610    32.6660    10.7050 C.3      16  POP10      -0.0526
  1321 H4R          3.7660    33.6340    10.1310 H        16  POP10       0.0265
  1322 H4S          2.7090    32.8710    11.3750 H        16  POP10       0.0265
  1323 C25          3.1390    31.6520     9.6680 C.3      16  POP10      -0.0530
  1324 H5R          2.7560    30.6870    10.2080 H        16  POP10       0.0265
  1325 H5S          4.0510    31.4370     9.0840 H        16  POP10       0.0265
  1326 C26          2.0200    32.0780     8.7750 C.3      16  POP10      -0.0528
  1327 H6R          2.3060    32.9920     8.2840 H        16  POP10       0.0265
  1328 H6S          0.9720    32.3210     9.2160 H        16  POP10       0.0265
  1329 C27          1.9120    30.9870     7.6990 C.3      16  POP10      -0.0496
  1330 H7R          1.6640    30.0000     8.0980 H        16  POP10       0.0268
  1331 H7S          3.0110    30.7560     7.3360 H        16  POP10       0.0268
  1332 C28          1.0670    31.4460     6.4960 C.3      16  POP10      -0.0348
  1333 H8R          1.6420    32.3640     6.1450 H        16  POP10       0.0307
  1334 H8S          0.0770    31.7140     6.9190 H        16  POP10       0.0307
  1335 C29          1.0560    30.4260     5.4080 C.2      16  POP10      -0.0879
  1336 H91          1.4060    29.4520     5.6540 H        16  POP10       0.0569
  1337 C210         0.4320    30.6460     4.1810 C.2      16  POP10      -0.0879
  1338 H101         0.3740    29.7920     3.4490 H        16  POP10       0.0569
  1339 C211        -0.2790    31.9050     3.6720 C.3      16  POP10      -0.0348
  1340 H11R         0.3640    32.2180     2.7570 H        16  POP10       0.0307
  1341 H11S        -0.2530    32.7520     4.4420 H        16  POP10       0.0307
  1342 C212        -1.7580    31.7260     3.0640 C.3      16  POP10      -0.0496
  1343 H12R        -2.4020    31.5990     3.9090 H        16  POP10       0.0268
  1344 H12S        -1.6350    30.8530     2.3850 H        16  POP10       0.0268
  1345 C213        -2.3170    32.7450     2.0560 C.3      16  POP10      -0.0528
  1346 H13R        -1.8980    32.5480     1.0510 H        16  POP10       0.0265
  1347 H13S        -1.9100    33.8070     2.2950 H        16  POP10       0.0265
  1348 C214        -3.8630    32.7710     2.0850 C.3      16  POP10      -0.0530
  1349 H14R        -4.2020    33.1660     3.0540 H        16  POP10       0.0265
  1350 H14S        -4.2660    31.8170     1.9260 H        16  POP10       0.0265
  1351 C215        -4.3560    33.7180     0.9280 C.3      16  POP10      -0.0531
  1352 H15R        -4.3060    33.3030    -0.0840 H        16  POP10       0.0265
  1353 H15S        -3.7330    34.6330     0.9130 H        16  POP10       0.0265
  1354 C216        -5.8160    34.1520     1.2580 C.3      16  POP10      -0.0533
  1355 H16R        -6.0570    35.1190     0.7960 H        16  POP10       0.0265
  1356 H16S        -5.8470    34.3370     2.3670 H        16  POP10       0.0265
  1357 C217        -6.8900    33.1870     1.0000 C.3      16  POP10      -0.0559
  1358 H17R        -7.8120    33.7310     1.2220 H        16  POP10       0.0263
  1359 H17S        -6.7910    32.4400     1.7920 H        16  POP10       0.0263
  1360 C218        -6.8860    32.5100    -0.4240 C.3      16  POP10      -0.0653
  1361 H18R        -6.2310    31.7400    -0.4910 H        16  POP10       0.0230
  1362 H18S        -6.5990    33.3360    -1.1720 H        16  POP10       0.0230
  1363 H18T        -7.9580    32.2280    -0.6060 H        16  POP10       0.0230
  1364 C33         -2.0210    32.3750    12.2910 C.3      16  POP10      -0.0441
  1365 H3X         -2.7670    32.8100    12.9570 H        16  POP10       0.0270
  1366 H3Y         -1.5040    31.4170    12.7120 H        16  POP10       0.0270
  1367 C34         -2.8200    31.8850    11.0830 C.3      16  POP10      -0.0526
  1368 H4X         -3.2290    32.9250    10.5030 H        16  POP10       0.0265
  1369 H4Y         -3.6790    31.3910    11.5180 H        16  POP10       0.0265
  1370 C35         -2.1110    31.0780    10.0410 C.3      16  POP10      -0.0530
  1371 H5X         -1.7790    30.1700    10.4900 H        16  POP10       0.0265
  1372 H5Y         -1.1800    31.6330     9.6250 H        16  POP10       0.0265
  1373 C36         -2.9640    30.8070     8.8570 C.3      16  POP10      -0.0531
  1374 H6X         -3.2920    31.6350     8.2370 H        16  POP10       0.0265
  1375 H6Y         -3.9860    30.4610     9.3490 H        16  POP10       0.0265
  1376 C37         -2.4290    29.7140     7.9710 C.3      16  POP10      -0.0531
  1377 H7X         -2.0490    28.8910     8.5910 H        16  POP10       0.0265
  1378 H7Y         -1.5520    30.0420     7.4240 H        16  POP10       0.0265
  1379 C38         -3.4910    29.3690     6.9210 C.3      16  POP10      -0.0531
  1380 H8X         -4.0520    30.2270     6.5130 H        16  POP10       0.0265
  1381 H8Y         -4.2970    28.8620     7.4630 H        16  POP10       0.0265
  1382 C39         -2.8260    28.4610     5.8800 C.3      16  POP10      -0.0531
  1383 H9X         -2.4340    27.6050     6.5460 H        16  POP10       0.0265
  1384 H9Y         -1.9700    29.0090     5.3480 H        16  POP10       0.0265
  1385 C310        -3.7540    27.9120     4.7750 C.3      16  POP10      -0.0531
  1386 H10X        -4.5660    27.3240     5.2390 H        16  POP10       0.0265
  1387 H10Y        -3.2230    27.2420     4.1200 H        16  POP10       0.0265
  1388 C311        -4.4550    28.9820     3.9620 C.3      16  POP10      -0.0531
  1389 H11X        -3.8180    29.7820     3.6870 H        16  POP10       0.0265
  1390 H11Y        -5.2460    29.4690     4.6640 H        16  POP10       0.0265
  1391 C312        -5.2250    28.3510     2.8420 C.3      16  POP10      -0.0531
  1392 H12X        -6.0230    27.7240     3.3290 H        16  POP10       0.0265
  1393 H12Y        -4.6090    27.6300     2.2970 H        16  POP10       0.0265
  1394 C313        -5.8670    29.3020     1.8390 C.3      16  POP10      -0.0531
  1395 H13X        -5.0850    29.7360     1.2280 H        16  POP10       0.0265
  1396 H13Y        -6.3540    30.1070     2.4400 H        16  POP10       0.0265
  1397 C314        -6.7770    28.7330     0.7860 C.3      16  POP10      -0.0533
  1398 H14X        -6.7520    29.4140    -0.0610 H        16  POP10       0.0265
  1399 H14Y        -7.8400    28.7180     1.0940 H        16  POP10       0.0265
  1400 C315        -6.3270    27.3250     0.3320 C.3      16  POP10      -0.0559
  1401 H15X        -6.5680    26.6860     1.1660 H        16  POP10       0.0263
  1402 H15Y        -5.2610    27.2820     0.0030 H        16  POP10       0.0263
  1403 C316        -7.2930    26.7450    -0.7380 C.3      16  POP10      -0.0653
  1404 H16X        -7.5630    27.4640    -1.4490 H        16  POP10       0.0230
  1405 H16Y        -8.2740    26.4430    -0.1930 H        16  POP10       0.0230
  1406 H16Z        -6.8660    25.8400    -1.1190 H        16  POP10       0.0230
  1407 N           26.9090   -24.6560    20.4870 N.3      17  POP11       0.2385
  1408 C12         26.6900   -26.1510    20.3700 C.3      17  POP11      -0.0064
  1409 H12A        27.6430   -26.6400    20.1680 H        17  POP11       0.0838
  1410 H12B        26.0050   -26.3280    19.5300 H        17  POP11       0.0838
  1411 C13         27.4090   -24.1210    19.2180 C.3      17  POP11      -0.0417
  1412 H13A        28.3140   -24.5530    19.0310 H        17  POP11       0.0778
  1413 H13B        26.6600   -24.2510    18.4570 H        17  POP11       0.0778
  1414 H13C        27.5420   -23.0250    19.3740 H        17  POP11       0.0778
  1415 C14         25.6430   -23.9000    20.7710 C.3      17  POP11      -0.0417
  1416 H14A        25.9180   -22.9570    21.1330 H        17  POP11       0.0778
  1417 H14B        24.9580   -23.8910    19.9430 H        17  POP11       0.0778
  1418 H14C        25.1720   -24.5200    21.6080 H        17  POP11       0.0778
  1419 C15         27.7940   -24.3680    21.6700 C.3      17  POP11      -0.0417
  1420 H15A        28.1460   -23.4150    21.7160 H        17  POP11       0.0778
  1421 H15B        28.6840   -24.9710    21.6640 H        17  POP11       0.0778
  1422 H15C        27.3530   -24.4800    22.6550 H        17  POP11       0.0778
  1423 C11         26.1240   -26.8870    21.6370 C.3      17  POP11       0.0954
  1424 H11A        26.7890   -26.6250    22.5660 H        17  POP11       0.0618
  1425 H11B        26.3130   -27.9840    21.5010 H        17  POP11       0.0618
  1426 P           23.6690   -27.6180    21.4420 P.3      17  POP11       0.2645
  1427 O13         22.2450   -27.1960    21.6170 O.co2    17  POP11      -0.5105
  1428 O14         24.0330   -28.9080    22.1090 O.co2    17  POP11      -0.5105
  1429 O12         24.7760   -26.5650    21.8740 O.3      17  POP11      -0.3154
  1430 O11         23.9850   -27.8920    19.9170 O.3      17  POP11      -0.3181
  1431 C1          23.6250   -26.9190    18.8520 C.3      17  POP11       0.0845
  1432 HA          24.0080   -25.9250    19.1480 H        17  POP11       0.0591
  1433 HB          22.5770   -26.8890    18.7170 H        17  POP11       0.0591
  1434 C2          24.2110   -27.3220    17.4480 C.3      17  POP11       0.1155
  1435 HS          25.3130   -27.2780    17.4880 H        17  POP11       0.0649
  1436 O21         23.5680   -26.4450    16.4740 O.3      17  POP11      -0.3072
  1437 C21         24.2460   -25.2820    16.3900 C.2      17  POP11       0.2626
  1438 O22         25.1670   -24.9950    17.0510 O.2      17  POP11      -0.2650
  1439 C22         23.5570   -24.4170    15.3750 C.3      17  POP11       0.0332
  1440 H2R         22.5130   -24.4760    15.7360 H        17  POP11       0.0366
  1441 H2S         23.8770   -24.8400    14.3850 H        17  POP11       0.0366
  1442 C3          23.8850   -28.7700    17.1850 C.3      17  POP11       0.0860
  1443 HX          22.7400   -28.8080    17.1080 H        17  POP11       0.0593
  1444 HY          24.2450   -29.4270    18.0420 H        17  POP11       0.0593
  1445 O31         24.2770   -29.4030    15.9740 O.3      17  POP11      -0.3125
  1446 C31         25.5680   -29.8440    15.9190 C.2      17  POP11       0.2622
  1447 O32         26.4120   -29.7660    16.7960 O.2      17  POP11      -0.2650
  1448 C32         25.7760   -30.3750    14.5370 C.3      17  POP11       0.0332
  1449 H2X         25.4110   -31.4170    14.5300 H        17  POP11       0.0366
  1450 H2Y         26.8300   -30.4470    14.3070 H        17  POP11       0.0366
  1451 C23         23.9890   -22.8760    15.2950 C.3      17  POP11      -0.0441
  1452 H3R         25.0040   -22.7950    15.7240 H        17  POP11       0.0270
  1453 H3S         23.4080   -22.3480    16.0710 H        17  POP11       0.0270
  1454 C24         23.8880   -22.2350    13.8880 C.3      17  POP11      -0.0526
  1455 H4R         24.6370   -22.8210    13.3460 H        17  POP11       0.0265
  1456 H4S         24.0560   -21.1530    13.8380 H        17  POP11       0.0265
  1457 C25         22.4650   -22.3760    13.2170 C.3      17  POP11      -0.0530
  1458 H5R         21.6780   -22.1110    13.9500 H        17  POP11       0.0265
  1459 H5S         22.3360   -23.4630    13.0480 H        17  POP11       0.0265
  1460 C26         22.3550   -21.7340    11.8490 C.3      17  POP11      -0.0528
  1461 H6R         23.3580   -21.9120    11.3870 H        17  POP11       0.0265
  1462 H6S         22.4700   -20.6570    12.0320 H        17  POP11       0.0265
  1463 C27         21.0840   -22.0970    11.0840 C.3      17  POP11      -0.0496
  1464 H7R         20.3750   -21.7130    11.7480 H        17  POP11       0.0268
  1465 H7S         20.8800   -23.2240    11.1010 H        17  POP11       0.0268
  1466 C28         20.7990   -21.4100     9.6660 C.3      17  POP11      -0.0348
  1467 H8R         21.3460   -22.0820     9.0120 H        17  POP11       0.0307
  1468 H8S         21.2560   -20.3620     9.6620 H        17  POP11       0.0307
  1469 C29         19.3560   -21.4010     9.2790 C.2      17  POP11      -0.0879
  1470 H91         18.7870   -20.6830     9.8690 H        17  POP11       0.0569
  1471 C210        18.7030   -22.1400     8.3550 C.2      17  POP11      -0.0879
  1472 H101        17.6500   -21.9120     8.3050 H        17  POP11       0.0569
  1473 C211        19.1940   -23.2410     7.4720 C.3      17  POP11      -0.0348
  1474 H11R        18.5230   -24.1440     7.5630 H        17  POP11       0.0307
  1475 H11S        20.2980   -23.4060     7.7860 H        17  POP11       0.0307
  1476 C212        19.1580   -22.8410     6.0150 C.3      17  POP11      -0.0496
  1477 H12R        19.4460   -21.7420     5.8370 H        17  POP11       0.0268
  1478 H12S        18.0690   -22.9290     5.7260 H        17  POP11       0.0268
  1479 C213        19.8860   -23.8550     5.1420 C.3      17  POP11      -0.0528
  1480 H13R        19.3760   -24.8620     5.1580 H        17  POP11       0.0265
  1481 H13S        20.9340   -24.0560     5.5500 H        17  POP11       0.0265
  1482 C214        20.0020   -23.4010     3.6690 C.3      17  POP11      -0.0530
  1483 H14R        20.7570   -23.9770     3.1660 H        17  POP11       0.0265
  1484 H14S        20.4050   -22.3120     3.6760 H        17  POP11       0.0265
  1485 C215        18.6460   -23.5270     2.9720 C.3      17  POP11      -0.0531
  1486 H15R        17.8200   -22.9100     3.4870 H        17  POP11       0.0265
  1487 H15S        18.3130   -24.6050     3.0950 H        17  POP11       0.0265
  1488 C216        18.6390   -23.1640     1.4760 C.3      17  POP11      -0.0533
  1489 H16R        19.3920   -23.8560     1.0030 H        17  POP11       0.0265
  1490 H16S        18.7670   -22.0570     1.2860 H        17  POP11       0.0265
  1491 C217        17.2690   -23.3970     0.7580 C.3      17  POP11      -0.0559
  1492 H17R        16.9730   -24.4280     0.9000 H        17  POP11       0.0263
  1493 H17S        17.3640   -23.1580    -0.3260 H        17  POP11       0.0263
  1494 C218        16.0730   -22.5130     1.3130 C.3      17  POP11      -0.0653
  1495 H18R        15.0770   -22.7260     0.8960 H        17  POP11       0.0230
  1496 H18S        16.2160   -21.4900     1.1200 H        17  POP11       0.0230
  1497 H18T        16.0110   -22.6740     2.3940 H        17  POP11       0.0230
  1498 C33         25.2330   -29.4710    13.3420 C.3      17  POP11      -0.0441
  1499 H3X         25.9400   -28.6890    13.2420 H        17  POP11       0.0270
  1500 H3Y         24.2580   -28.9430    13.5370 H        17  POP11       0.0270
  1501 C34         25.1230   -30.2120    12.0550 C.3      17  POP11      -0.0526
  1502 H4X         24.3500   -31.0700    12.0770 H        17  POP11       0.0265
  1503 H4Y         26.2270   -30.6550    11.9220 H        17  POP11       0.0265
  1504 C35         24.7600   -29.5330    10.7230 C.3      17  POP11      -0.0530
  1505 H5X         25.5230   -28.7470    10.6220 H        17  POP11       0.0265
  1506 H5Y         23.8100   -29.0250    10.7170 H        17  POP11       0.0265
  1507 C36         24.9190   -30.3880     9.4760 C.3      17  POP11      -0.0531
  1508 H6X         24.1430   -31.1190     9.4820 H        17  POP11       0.0265
  1509 H6Y         25.8500   -31.1060     9.6790 H        17  POP11       0.0265
  1510 C37         25.0040   -29.6530     8.0900 C.3      17  POP11      -0.0531
  1511 H7X         26.0390   -29.1010     8.1880 H        17  POP11       0.0265
  1512 H7Y         24.2170   -28.8650     8.0670 H        17  POP11       0.0265
  1513 C38         25.0090   -30.5960     6.7970 C.3      17  POP11      -0.0531
  1514 H8X         24.0960   -30.5220     6.2060 H        17  POP11       0.0265
  1515 H8Y         25.2330   -31.5880     7.2540 H        17  POP11       0.0265
  1516 C39         26.3100   -30.3390     5.9150 C.3      17  POP11      -0.0531
  1517 H9X         27.2320   -30.3780     6.6090 H        17  POP11       0.0265
  1518 H9Y         26.2740   -29.3440     5.4770 H        17  POP11       0.0265
  1519 C310        26.5390   -31.4600     4.8740 C.3      17  POP11      -0.0531
  1520 H10X        25.6010   -31.5040     4.2730 H        17  POP11       0.0265
  1521 H10Y        26.5070   -32.4360     5.3800 H        17  POP11       0.0265
  1522 C311        27.7720   -31.5520     3.9430 C.3      17  POP11      -0.0531
  1523 H11X        27.7660   -32.4410     3.2700 H        17  POP11       0.0265
  1524 H11Y        28.5780   -31.7350     4.6430 H        17  POP11       0.0265
  1525 C312        27.9050   -30.2700     3.0790 C.3      17  POP11      -0.0531
  1526 H12X        28.2980   -29.4070     3.7170 H        17  POP11       0.0265
  1527 H12Y        26.8500   -29.9280     2.8230 H        17  POP11       0.0265
  1528 C313        28.8370   -30.4910     1.8950 C.3      17  POP11      -0.0531
  1529 H13X        28.6520   -29.7180     1.1050 H        17  POP11       0.0265
  1530 H13Y        28.5590   -31.4930     1.4190 H        17  POP11       0.0265
  1531 C314        30.3770   -30.4790     2.2600 C.3      17  POP11      -0.0533
  1532 H14X        30.4850   -31.3180     3.0430 H        17  POP11       0.0265
  1533 H14Y        30.5890   -29.6570     2.9180 H        17  POP11       0.0265
  1534 C315        31.3780   -30.6510     1.1100 C.3      17  POP11      -0.0559
  1535 H15X        31.4380   -29.7820     0.4670 H        17  POP11       0.0263
  1536 H15Y        30.8400   -31.4190     0.4400 H        17  POP11       0.0263
  1537 C316        32.7730   -31.0990     1.6420 C.3      17  POP11      -0.0653
  1538 H16X        33.3460   -31.4090     0.7440 H        17  POP11       0.0230
  1539 H16Y        32.8770   -31.9610     2.3560 H        17  POP11       0.0230
  1540 H16Z        33.3280   -30.2210     2.0080 H        17  POP11       0.0230
  1541 N           21.2650   -17.4240    25.1300 N.3      18  POP12       0.2385
  1542 C12         21.4180   -18.0200    23.7160 C.3      18  POP12      -0.0064
  1543 H12A        21.9860   -18.9640    23.7610 H        18  POP12       0.0838
  1544 H12B        22.0230   -17.3530    23.0200 H        18  POP12       0.0838
  1545 C13         22.6210   -16.8080    25.4530 C.3      18  POP12      -0.0417
  1546 H13A        23.0380   -15.9920    24.8790 H        18  POP12       0.0778
  1547 H13B        22.6260   -16.4990    26.5110 H        18  POP12       0.0778
  1548 H13C        23.3680   -17.6870    25.4520 H        18  POP12       0.0778
  1549 C14         20.2360   -16.3800    25.2330 C.3      18  POP12      -0.0417
  1550 H14A        20.4910   -15.5220    24.6470 H        18  POP12       0.0778
  1551 H14B        19.3330   -16.7590    24.7520 H        18  POP12       0.0778
  1552 H14C        19.9280   -15.9930    26.2040 H        18  POP12       0.0778
  1553 C15         20.9060   -18.4320    26.1120 C.3      18  POP12      -0.0417
  1554 H15A        21.6670   -19.1710    26.1600 H        18  POP12       0.0778
  1555 H15B        19.8590   -18.8330    26.1440 H        18  POP12       0.0778
  1556 H15C        21.1180   -18.0350    27.0990 H        18  POP12       0.0778
  1557 C11         20.1950   -18.2990    22.7380 C.3      18  POP12       0.0954
  1558 H11A        20.4600   -18.5560    21.7140 H        18  POP12       0.0618
  1559 H11B        19.8720   -17.2050    22.7320 H        18  POP12       0.0618
  1560 P           19.7570   -20.7660    23.4660 P.3      18  POP12       0.2645
  1561 O13         18.6770   -21.6170    24.0530 O.co2    18  POP12      -0.5105
  1562 O14         21.1560   -20.8190    24.0140 O.co2    18  POP12      -0.5105
  1563 O12         19.3320   -19.2620    23.3750 O.3      18  POP12      -0.3154
  1564 O11         19.8760   -21.2090    21.9320 O.3      18  POP12      -0.3181
  1565 C1          18.7420   -20.9050    21.1150 C.3      18  POP12       0.0845
  1566 HA          18.7280   -19.8230    20.9760 H        18  POP12       0.0591
  1567 HB          17.7480   -21.2940    21.5030 H        18  POP12       0.0591
  1568 C2          18.8560   -21.5770    19.7330 C.3      18  POP12       0.1155
  1569 HS          17.9000   -21.6070    19.2140 H        18  POP12       0.0649
  1570 O21         19.3370   -22.8930    19.9840 O.3      18  POP12      -0.3072
  1571 C21         18.3900   -23.7590    20.3250 C.2      18  POP12       0.2626
  1572 O22         17.2050   -23.5520    20.3760 O.2      18  POP12      -0.2650
  1573 C22         18.8980   -25.0990    20.5410 C.3      18  POP12       0.0332
  1574 H2R         18.5090   -25.4010    21.5240 H        18  POP12       0.0366
  1575 H2S         19.9800   -25.1380    20.5450 H        18  POP12       0.0366
  1576 C3          19.8810   -20.8950    18.7430 C.3      18  POP12       0.0860
  1577 HX          20.9380   -21.1010    18.9540 H        18  POP12       0.0593
  1578 HY          19.6990   -19.8400    18.8060 H        18  POP12       0.0593
  1579 O31         19.6300   -21.2100    17.3380 O.3      18  POP12      -0.3125
  1580 C31         20.0620   -22.4050    16.9350 C.2      18  POP12       0.2622
  1581 O32         20.7880   -23.1780    17.5350 O.2      18  POP12      -0.2650
  1582 C32         19.4790   -22.6630    15.5600 C.3      18  POP12       0.0332
  1583 H2X         19.9840   -23.4950    15.0560 H        18  POP12       0.0366
  1584 H2Y         19.6100   -21.7740    14.8990 H        18  POP12       0.0366
  1585 C23         18.4610   -26.1260    19.4250 C.3      18  POP12      -0.0441
  1586 H3R         17.4120   -25.9260    19.1740 H        18  POP12       0.0270
  1587 H3S         18.5080   -27.0880    20.0260 H        18  POP12       0.0270
  1588 C24         19.3940   -26.3030    18.2690 C.3      18  POP12      -0.0526
  1589 H4R         20.3910   -26.3200    18.7340 H        18  POP12       0.0265
  1590 H4S         19.4710   -25.3300    17.7270 H        18  POP12       0.0265
  1591 C25         18.9500   -27.2880    17.1860 C.3      18  POP12      -0.0530
  1592 H5R         17.9400   -26.9850    16.8150 H        18  POP12       0.0265
  1593 H5S         19.0030   -28.2670    17.5850 H        18  POP12       0.0265
  1594 C26         19.9400   -27.1950    16.0190 C.3      18  POP12      -0.0528
  1595 H6R         20.8870   -27.5980    16.5050 H        18  POP12       0.0265
  1596 H6S         20.2490   -26.1440    15.7560 H        18  POP12       0.0265
  1597 C27         19.7310   -28.0330    14.7300 C.3      18  POP12      -0.0496
  1598 H7R         18.7310   -27.6040    14.3360 H        18  POP12       0.0268
  1599 H7S         19.4330   -29.0990    14.9560 H        18  POP12       0.0268
  1600 C28         20.7590   -28.0820    13.6140 C.3      18  POP12      -0.0348
  1601 H8R         20.5380   -28.8060    12.7990 H        18  POP12       0.0307
  1602 H8S         21.7290   -28.5660    14.0370 H        18  POP12       0.0307
  1603 C29         21.1250   -26.7730    12.9240 C.2      18  POP12      -0.0879
  1604 H91         21.9520   -26.1390    13.3430 H        18  POP12       0.0569
  1605 C210        20.2440   -26.1540    12.1110 C.2      18  POP12      -0.0879
  1606 H101        20.4200   -25.0900    11.8600 H        18  POP12       0.0569
  1607 C211        18.9910   -26.7630    11.5390 C.3      18  POP12      -0.0348
  1608 H11R        18.0360   -26.2960    11.9450 H        18  POP12       0.0307
  1609 H11S        18.9540   -27.7980    11.8480 H        18  POP12       0.0307
  1610 C212        18.8280   -26.7430    10.0070 C.3      18  POP12      -0.0496
  1611 H12R        19.7310   -27.2240     9.7250 H        18  POP12       0.0268
  1612 H12S        18.8560   -25.7110     9.5240 H        18  POP12       0.0268
  1613 C213        17.6080   -27.5520     9.4890 C.3      18  POP12      -0.0528
  1614 H13R        16.6810   -27.0890     9.8800 H        18  POP12       0.0265
  1615 H13S        17.5760   -28.5120     9.9770 H        18  POP12       0.0265
  1616 C214        17.6970   -27.8510     8.0120 C.3      18  POP12      -0.0530
  1617 H14R        18.5280   -28.5570     7.8700 H        18  POP12       0.0265
  1618 H14S        17.9670   -26.7940     7.5870 H        18  POP12       0.0265
  1619 C215        16.4590   -28.2760     7.3190 C.3      18  POP12      -0.0531
  1620 H15R        16.3340   -29.4250     7.2820 H        18  POP12       0.0265
  1621 H15S        16.5320   -27.8700     6.2790 H        18  POP12       0.0265
  1622 C216        15.1520   -27.6750     7.8390 C.3      18  POP12      -0.0533
  1623 H16R        15.2630   -26.6760     7.9600 H        18  POP12       0.0265
  1624 H16S        14.6860   -28.0590     8.7620 H        18  POP12       0.0265
  1625 C217        13.9630   -27.7340     6.7900 C.3      18  POP12      -0.0559
  1626 H17R        13.7980   -28.8760     6.7190 H        18  POP12       0.0263
  1627 H17S        14.2990   -27.2410     5.8560 H        18  POP12       0.0263
  1628 C218        12.6870   -27.1210     7.1570 C.3      18  POP12      -0.0653
  1629 H18R        11.8320   -27.4760     6.5180 H        18  POP12       0.0230
  1630 H18S        12.8010   -26.0970     6.9520 H        18  POP12       0.0230
  1631 H18T        12.3490   -27.2680     8.1260 H        18  POP12       0.0230
  1632 C33         17.9420   -22.9790    15.4870 C.3      18  POP12      -0.0441
  1633 H3X         17.5230   -22.3370    16.2530 H        18  POP12       0.0270
  1634 H3Y         17.8710   -24.0220    15.7760 H        18  POP12       0.0270
  1635 C34         17.3490   -22.6850    14.1340 C.3      18  POP12      -0.0526
  1636 H4X         17.5190   -21.6730    13.6510 H        18  POP12       0.0265
  1637 H4Y         16.2120   -22.7180    14.2190 H        18  POP12       0.0265
  1638 C35         17.7570   -23.7610    13.0910 C.3      18  POP12      -0.0530
  1639 H5X         17.1780   -24.6990    13.2530 H        18  POP12       0.0265
  1640 H5Y         18.8640   -24.0610    12.9780 H        18  POP12       0.0265
  1641 C36         17.3430   -23.3780    11.6360 C.3      18  POP12      -0.0531
  1642 H6X         17.9540   -24.0160    10.9930 H        18  POP12       0.0265
  1643 H6Y         17.7340   -22.3580    11.4000 H        18  POP12       0.0265
  1644 C37         15.9320   -23.6110    11.2740 C.3      18  POP12      -0.0531
  1645 H7X         15.2510   -23.1670    12.0640 H        18  POP12       0.0265
  1646 H7Y         15.7600   -24.7280    11.3450 H        18  POP12       0.0265
  1647 C38         15.5610   -23.2020     9.8720 C.3      18  POP12      -0.0531
  1648 H8X         16.2630   -23.6770     9.1390 H        18  POP12       0.0265
  1649 H8Y         15.7760   -22.0850     9.8770 H        18  POP12       0.0265
  1650 C39         14.0760   -23.5750     9.5060 C.3      18  POP12      -0.0531
  1651 H9X         13.4060   -23.2030    10.3070 H        18  POP12       0.0265
  1652 H9Y         14.0120   -24.6920     9.4820 H        18  POP12       0.0265
  1653 C310        13.6750   -22.9630     8.1450 C.3      18  POP12      -0.0531
  1654 H10X        13.8680   -21.8630     8.3190 H        18  POP12       0.0265
  1655 H10Y        12.6090   -23.1840     7.9140 H        18  POP12       0.0265
  1656 C311        14.5040   -23.3290     6.9000 C.3      18  POP12      -0.0531
  1657 H11X        14.6970   -24.4020     6.8260 H        18  POP12       0.0265
  1658 H11Y        15.4430   -22.7970     7.0460 H        18  POP12       0.0265
  1659 C312        13.8230   -22.9260     5.5720 C.3      18  POP12      -0.0531
  1660 H12X        14.6970   -22.8740     4.8440 H        18  POP12       0.0265
  1661 H12Y        13.3590   -21.9360     5.7430 H        18  POP12       0.0265
  1662 C313        12.8570   -23.9500     5.0640 C.3      18  POP12      -0.0531
  1663 H13X        11.8600   -23.6760     5.6190 H        18  POP12       0.0265
  1664 H13Y        13.2400   -24.9900     5.3460 H        18  POP12       0.0265
  1665 C314        12.7380   -23.8310     3.5310 C.3      18  POP12      -0.0533
  1666 H14X        13.6630   -24.1880     2.9690 H        18  POP12       0.0265
  1667 H14Y        12.5800   -22.7640     3.1220 H        18  POP12       0.0265
  1668 C315        11.5950   -24.7850     3.0010 C.3      18  POP12      -0.0559
  1669 H15X        11.4000   -24.6350     1.8810 H        18  POP12       0.0263
  1670 H15Y        10.7320   -24.5320     3.6230 H        18  POP12       0.0263
  1671 C316        11.9940   -26.2430     3.3350 C.3      18  POP12      -0.0653
  1672 H16X        13.1010   -26.3540     3.3520 H        18  POP12       0.0230
  1673 H16Y        11.6930   -26.4630     4.3930 H        18  POP12       0.0230
  1674 H16Z        11.5750   -26.8940     2.5320 H        18  POP12       0.0230
  1675 N            1.9730    24.2560    24.6670 N.3      19  POP13       0.2385
  1676 C12          1.3180    24.1190    23.2420 C.3      19  POP13      -0.0064
  1677 H12A         0.6580    24.9030    23.0420 H        19  POP13       0.0838
  1678 H12B         0.7040    23.2210    23.2660 H        19  POP13       0.0838
  1679 C13          1.0110    24.5650    25.7330 C.3      19  POP13      -0.0417
  1680 H13A         1.6010    24.3710    26.6680 H        19  POP13       0.0778
  1681 H13B         0.7510    25.5800    25.6060 H        19  POP13       0.0778
  1682 H13C         0.2250    23.8920    25.7760 H        19  POP13       0.0778
  1683 C14          2.6090    22.9270    24.9610 C.3      19  POP13      -0.0417
  1684 H14A         3.1920    22.9760    25.8340 H        19  POP13       0.0778
  1685 H14B         1.8570    22.1610    25.2370 H        19  POP13       0.0778
  1686 H14C         3.2930    22.5270    24.1870 H        19  POP13       0.0778
  1687 C15          3.0250    25.3480    24.6100 C.3      19  POP13      -0.0417
  1688 H15A         3.4930    25.3330    25.5880 H        19  POP13       0.0778
  1689 H15B         2.5250    26.3240    24.5380 H        19  POP13       0.0778
  1690 H15C         3.7620    25.2310    23.8420 H        19  POP13       0.0778
  1691 C11          2.2460    24.1200    22.0710 C.3      19  POP13       0.0954
  1692 H11A         1.8150    23.6920    21.1560 H        19  POP13       0.0618
  1693 H11B         3.0440    23.3630    22.3070 H        19  POP13       0.0618
  1694 P            1.9890    26.5400    21.2720 P.3      19  POP13       0.2645
  1695 O13          2.1260    27.6370    22.1680 O.co2    19  POP13      -0.5105
  1696 O14          0.6420    26.0660    20.8910 O.co2    19  POP13      -0.5105
  1697 O12          2.8450    25.3860    21.8080 O.3      19  POP13      -0.3154
  1698 O11          2.7190    26.8660    19.8500 O.3      19  POP13      -0.3181
  1699 C1           3.3110    25.7960    19.0920 C.3      19  POP13       0.0845
  1700 HA           3.1660    24.8360    19.6130 H        19  POP13       0.0591
  1701 HB           4.4500    25.9280    18.9960 H        19  POP13       0.0591
  1702 C2           2.7650    25.5760    17.7170 C.3      19  POP13       0.1155
  1703 HS           2.9720    24.5490    17.4690 H        19  POP13       0.0649
  1704 O21          3.4050    26.4700    16.8280 O.3      19  POP13      -0.3072
  1705 C21          3.7990    26.0810    15.6450 C.2      19  POP13       0.2626
  1706 O22          3.7270    24.9990    15.1280 O.2      19  POP13      -0.2650
  1707 C22          4.3620    27.3280    14.9630 C.3      19  POP13       0.0332
  1708 H2R          5.1900    27.6710    15.5890 H        19  POP13       0.0366
  1709 H2S          3.7130    28.1080    14.8660 H        19  POP13       0.0366
  1710 C3           1.1960    25.6690    17.7650 C.3      19  POP13       0.0860
  1711 HX           0.8800    26.7080    18.1410 H        19  POP13       0.0593
  1712 HY           0.8100    24.9180    18.5000 H        19  POP13       0.0593
  1713 O31          0.5800    25.5990    16.4290 O.3      19  POP13      -0.3125
  1714 C31          0.2930    24.3400    16.0450 C.2      19  POP13       0.2622
  1715 O32          0.2540    23.4060    16.7430 O.2      19  POP13      -0.2650
  1716 C32          0.1800    24.2370    14.5010 C.3      19  POP13       0.0332
  1717 H2X          1.2520    24.2760    14.1210 H        19  POP13       0.0366
  1718 H2Y         -0.3880    25.0850    14.1810 H        19  POP13       0.0366
  1719 C23          4.9590    27.0080    13.5970 C.3      19  POP13      -0.0441
  1720 H3R          4.1480    26.8020    12.9120 H        19  POP13       0.0270
  1721 H3S          5.5420    26.0510    13.6230 H        19  POP13       0.0270
  1722 C24          5.7990    28.1880    13.0900 C.3      19  POP13      -0.0526
  1723 H4R          6.5690    28.4640    13.8630 H        19  POP13       0.0265
  1724 H4S          5.0920    28.9610    13.0270 H        19  POP13       0.0265
  1725 C25          6.5160    27.7360    11.8150 C.3      19  POP13      -0.0530
  1726 H5R          6.7670    26.6710    11.9080 H        19  POP13       0.0265
  1727 H5S          7.4690    28.3300    11.8160 H        19  POP13       0.0265
  1728 C26          5.8160    28.0560    10.5400 C.3      19  POP13      -0.0528
  1729 H6R          5.6460    29.1850    10.4420 H        19  POP13       0.0265
  1730 H6S          4.8980    27.4980    10.5680 H        19  POP13       0.0265
  1731 C27          6.6180    27.7710     9.2090 C.3      19  POP13      -0.0496
  1732 H7R          6.9920    26.7550     9.3700 H        19  POP13       0.0268
  1733 H7S          7.4160    28.5310     9.3270 H        19  POP13       0.0268
  1734 C28          5.8230    27.9600     7.9570 C.3      19  POP13      -0.0348
  1735 H8R          6.4670    28.6380     7.2280 H        19  POP13       0.0307
  1736 H8S          4.9050    28.5580     8.1390 H        19  POP13       0.0307
  1737 C29          5.5590    26.6050     7.3740 C.2      19  POP13      -0.0879
  1738 H91          6.4190    25.9300     7.3140 H        19  POP13       0.0569
  1739 C210         4.3890    26.0610     6.9480 C.2      19  POP13      -0.0879
  1740 H101         4.3840    25.1290     6.3640 H        19  POP13       0.0569
  1741 C211         3.0010    26.6630     6.9700 C.3      19  POP13      -0.0348
  1742 H11R         2.3550    26.3020     6.1910 H        19  POP13       0.0307
  1743 H11S         2.9590    27.7750     6.9140 H        19  POP13       0.0307
  1744 C212         2.2360    26.1780     8.2900 C.3      19  POP13      -0.0496
  1745 H12R         2.8600    26.2830     9.1760 H        19  POP13       0.0268
  1746 H12S         2.1620    25.0610     8.1010 H        19  POP13       0.0268
  1747 C213         0.9340    26.9050     8.4600 C.3      19  POP13      -0.0528
  1748 H13R         0.2660    26.6610     7.6250 H        19  POP13       0.0265
  1749 H13S         1.0500    27.9990     8.3300 H        19  POP13       0.0265
  1750 C214         0.1580    26.7400     9.8440 C.3      19  POP13      -0.0530
  1751 H14R        -0.0240    25.5630     9.9470 H        19  POP13       0.0265
  1752 H14S        -0.8530    27.1960     9.7230 H        19  POP13       0.0265
  1753 C215         0.9390    27.2620    11.0580 C.3      19  POP13      -0.0531
  1754 H15R         1.1860    28.3450    10.6440 H        19  POP13       0.0265
  1755 H15S         1.9260    26.6960    11.1730 H        19  POP13       0.0265
  1756 C216         0.0150    27.2260    12.3050 C.3      19  POP13      -0.0533
  1757 H16R        -0.5040    26.3160    12.3700 H        19  POP13       0.0265
  1758 H16S        -0.7830    27.9440    12.0910 H        19  POP13       0.0265
  1759 C217         0.6650    27.6170    13.7020 C.3      19  POP13      -0.0559
  1760 H17R         1.2750    26.7520    14.1170 H        19  POP13       0.0263
  1761 H17S        -0.2700    27.8030    14.3390 H        19  POP13       0.0263
  1762 C218         1.5560    28.8300    13.6200 C.3      19  POP13      -0.0653
  1763 H18R         1.1680    29.7030    13.0080 H        19  POP13       0.0230
  1764 H18S         2.5100    28.6950    13.2120 H        19  POP13       0.0230
  1765 H18T         1.7920    29.2820    14.5900 H        19  POP13       0.0230
  1766 C33         -0.5720    22.9650    14.1810 C.3      19  POP13      -0.0441
  1767 H3X         -1.5220    22.9750    14.7830 H        19  POP13       0.0270
  1768 H3Y         -0.0390    22.0160    14.4360 H        19  POP13       0.0270
  1769 C34         -0.9470    22.7010    12.6850 C.3      19  POP13      -0.0526
  1770 H4X         -1.7420    23.3920    12.4060 H        19  POP13       0.0265
  1771 H4Y         -1.3810    21.7230    12.6820 H        19  POP13       0.0265
  1772 C35          0.1280    22.8300    11.5100 C.3      19  POP13      -0.0530
  1773 H5X          0.3610    23.9260    11.4570 H        19  POP13       0.0265
  1774 H5Y         -0.3250    22.5220    10.5490 H        19  POP13       0.0265
  1775 C36          1.4040    22.0390    11.7600 C.3      19  POP13      -0.0531
  1776 H6X          1.7260    22.4960    12.7440 H        19  POP13       0.0265
  1777 H6Y          2.2050    22.2660    11.0260 H        19  POP13       0.0265
  1778 C37          1.2770    20.5010    11.9080 C.3      19  POP13      -0.0531
  1779 H7X          0.4220    20.3850    12.5980 H        19  POP13       0.0265
  1780 H7Y          2.2860    20.2880    12.3170 H        19  POP13       0.0265
  1781 C38          1.1070    19.6490    10.5430 C.3      19  POP13      -0.0531
  1782 H8X          0.2380    19.9860    10.0050 H        19  POP13       0.0265
  1783 H8Y          0.9790    18.6280    10.9210 H        19  POP13       0.0265
  1784 C39          2.3710    19.7430     9.6820 C.3      19  POP13      -0.0531
  1785 H9X          2.9650    18.8280     9.8220 H        19  POP13       0.0265
  1786 H9Y          3.0250    20.5500    10.0330 H        19  POP13       0.0265
  1787 C310         2.0510    19.8680     8.1740 C.3      19  POP13      -0.0531
  1788 H10X         1.4270    18.9600     8.0430 H        19  POP13       0.0265
  1789 H10Y         3.0500    19.6230     7.6240 H        19  POP13       0.0265
  1790 C311         1.4750    21.0560     7.5820 C.3      19  POP13      -0.0531
  1791 H11X         2.2130    21.9420     7.5480 H        19  POP13       0.0265
  1792 H11Y         0.6110    21.4700     8.2350 H        19  POP13       0.0265
  1793 C312         0.9240    20.7930     6.1770 C.3      19  POP13      -0.0531
  1794 H12X         0.1060    21.3940     5.8180 H        19  POP13       0.0265
  1795 H12Y         0.7520    19.6920     6.0420 H        19  POP13       0.0265
  1796 C313         1.9750    21.1480     5.1000 C.3      19  POP13      -0.0531
  1797 H13X         2.8370    20.4870     5.1510 H        19  POP13       0.0265
  1798 H13Y         2.3190    22.1920     5.2490 H        19  POP13       0.0265
  1799 C314         1.3640    21.0050     3.6730 C.3      19  POP13      -0.0533
  1800 H14X         0.5580    21.7420     3.5780 H        19  POP13       0.0265
  1801 H14Y         0.9240    19.9750     3.5090 H        19  POP13       0.0265
  1802 C315         2.3450    21.1980     2.4910 C.3      19  POP13      -0.0559
  1803 H15X         3.3200    20.7600     2.8520 H        19  POP13       0.0263
  1804 H15Y         2.4740    22.2920     2.3750 H        19  POP13       0.0263
  1805 C316         1.9160    20.5410     1.1300 C.3      19  POP13      -0.0653
  1806 H16X         1.7230    19.4370     1.2130 H        19  POP13       0.0230
  1807 H16Y         1.0370    20.9620     0.5860 H        19  POP13       0.0230
  1808 H16Z         2.8870    20.6930     0.5370 H        19  POP13       0.0230
  1809 N           17.9120    26.6240    22.5620 N.3      20  POP14       0.2385
  1810 C12         17.9610    25.9450    21.1520 C.3      20  POP14      -0.0064
  1811 H12A        17.0520    26.1420    20.6230 H        20  POP14       0.0838
  1812 H12B        18.1150    24.8300    21.2390 H        20  POP14       0.0838
  1813 C13         18.9720    26.0200    23.4410 C.3      20  POP14      -0.0417
  1814 H13A        18.6820    24.9930    23.7740 H        20  POP14       0.0778
  1815 H13B        19.9260    25.9690    22.9040 H        20  POP14       0.0778
  1816 H13C        19.1690    26.6710    24.3180 H        20  POP14       0.0778
  1817 C14         18.1540    28.0570    22.4850 C.3      20  POP14      -0.0417
  1818 H14A        17.3800    28.7660    22.0490 H        20  POP14       0.0778
  1819 H14B        18.2990    28.3650    23.5080 H        20  POP14       0.0778
  1820 H14C        19.0040    28.2390    21.9230 H        20  POP14       0.0778
  1821 C15         16.6670    26.3750    23.2980 C.3      20  POP14      -0.0417
  1822 H15A        16.6950    26.6180    24.3020 H        20  POP14       0.0778
  1823 H15B        16.3160    25.3270    23.2850 H        20  POP14       0.0778
  1824 H15C        15.8360    26.9060    22.7970 H        20  POP14       0.0778
  1825 C11         19.0210    26.4410    20.2460 C.3      20  POP14       0.0954
  1826 H11A        19.0020    27.5870    20.1410 H        20  POP14       0.0618
  1827 H11B        18.9100    25.9950    19.2050 H        20  POP14       0.0618
  1828 P           21.6470    26.6860    20.2490 P.3      20  POP14       0.2645
  1829 O13         22.8000    25.8830    20.6720 O.co2    20  POP14      -0.5105
  1830 O14         21.6580    28.1400    20.6450 O.co2    20  POP14      -0.5105
  1831 O12         20.2960    26.0610    20.7370 O.3      20  POP14      -0.3154
  1832 O11         21.4580    26.6450    18.7380 O.3      20  POP14      -0.3181
  1833 C1          21.4880    25.4130    17.9770 C.3      20  POP14       0.0845
  1834 HA          20.8400    25.4270    17.0270 H        20  POP14       0.0591
  1835 HB          21.0570    24.5830    18.5790 H        20  POP14       0.0591
  1836 C2          22.8700    24.8960    17.6520 C.3      20  POP14       0.1155
  1837 HS          23.5140    25.0410    18.5240 H        20  POP14       0.0649
  1838 O21         23.3550    25.7240    16.5750 O.3      20  POP14      -0.3072
  1839 C21         24.5850    25.4150    16.2570 C.2      20  POP14       0.2626
  1840 O22         25.2840    24.5380    16.7190 O.2      20  POP14      -0.2650
  1841 C22         24.9700    26.3370    15.0910 C.3      20  POP14       0.0332
  1842 H2R         25.9580    26.7490    15.4030 H        20  POP14       0.0366
  1843 H2S         24.2550    27.2190    15.0190 H        20  POP14       0.0366
  1844 C3          22.8230    23.4080    17.3180 C.3      20  POP14       0.0860
  1845 HX          22.2290    22.9500    18.1950 H        20  POP14       0.0593
  1846 HY          23.8090    22.9350    17.4270 H        20  POP14       0.0593
  1847 O31         22.3330    23.1080    16.0340 O.3      20  POP14      -0.3125
  1848 C31         22.1430    21.8190    15.8990 C.2      20  POP14       0.2622
  1849 O32         22.3260    20.9540    16.6940 O.2      20  POP14      -0.2650
  1850 C32         21.7800    21.5880    14.4300 C.3      20  POP14       0.0332
  1851 H2X         20.8290    22.1180    14.1970 H        20  POP14       0.0366
  1852 H2Y         21.6650    20.5010    14.3220 H        20  POP14       0.0366
  1853 C23         25.1510    25.5950    13.7620 C.3      20  POP14      -0.0441
  1854 H3R         24.1680    25.0570    13.5090 H        20  POP14       0.0270
  1855 H3S         25.9850    24.9620    13.9270 H        20  POP14       0.0270
  1856 C24         25.4470    26.6160    12.5740 C.3      20  POP14      -0.0526
  1857 H4R         26.4120    27.0760    12.7970 H        20  POP14       0.0265
  1858 H4S         24.6770    27.4330    12.5320 H        20  POP14       0.0265
  1859 C25         25.4590    25.9760    11.1780 C.3      20  POP14      -0.0530
  1860 H5R         24.4580    25.7190    10.8890 H        20  POP14       0.0265
  1861 H5S         25.9040    25.0480    11.1250 H        20  POP14       0.0265
  1862 C26         26.0700    27.0150    10.1970 C.3      20  POP14      -0.0528
  1863 H6R         27.1460    27.1680    10.3290 H        20  POP14       0.0265
  1864 H6S         25.5560    28.0050    10.2210 H        20  POP14       0.0265
  1865 C27         25.9370    26.5030     8.7330 C.3      20  POP14      -0.0496
  1866 H7R         26.4780    27.2430     8.2050 H        20  POP14       0.0268
  1867 H7S         24.9280    26.5870     8.3700 H        20  POP14       0.0268
  1868 C28         26.4530    25.0500     8.4350 C.3      20  POP14      -0.0348
  1869 H8R         26.3400    24.8560     7.3420 H        20  POP14       0.0307
  1870 H8S         25.7420    24.3900     9.0650 H        20  POP14       0.0307
  1871 C29         27.8540    24.7510     8.9390 C.2      20  POP14      -0.0879
  1872 H91         27.8670    24.0680     9.7670 H        20  POP14       0.0569
  1873 C210        29.0230    24.9870     8.4080 C.2      20  POP14      -0.0879
  1874 H101        29.9640    24.6770     8.9380 H        20  POP14       0.0569
  1875 C211        29.3710    25.6190     7.0210 C.3      20  POP14      -0.0348
  1876 H11R        30.1950    26.3950     7.0480 H        20  POP14       0.0307
  1877 H11S        28.4230    26.0560     6.5240 H        20  POP14       0.0307
  1878 C212        29.7210    24.5760     5.9340 C.3      20  POP14      -0.0496
  1879 H12R        30.6060    23.9410     6.2470 H        20  POP14       0.0268
  1880 H12S        29.8720    25.0860     4.9820 H        20  POP14       0.0268
  1881 C213        28.6950    23.4940     5.6460 C.3      20  POP14      -0.0528
  1882 H13R        27.8400    24.1060     5.3060 H        20  POP14       0.0265
  1883 H13S        28.3320    22.9420     6.5750 H        20  POP14       0.0265
  1884 C214        29.0080    22.6170     4.4370 C.3      20  POP14      -0.0530
  1885 H14R        28.3960    21.7290     4.5650 H        20  POP14       0.0265
  1886 H14S        30.0470    22.3070     4.5770 H        20  POP14       0.0265
  1887 C215        28.5920    23.2580     3.0850 C.3      20  POP14      -0.0531
  1888 H15R        29.4180    24.0160     2.8710 H        20  POP14       0.0265
  1889 H15S        27.5730    23.6560     3.0620 H        20  POP14       0.0265
  1890 C216        28.7740    22.1640     2.0400 C.3      20  POP14      -0.0533
  1891 H16R        28.1170    21.3300     2.2930 H        20  POP14       0.0265
  1892 H16S        29.7580    21.7510     2.0570 H        20  POP14       0.0265
  1893 C217        28.4170    22.6650     0.6320 C.3      20  POP14      -0.0559
  1894 H17R        28.8730    22.1170    -0.1490 H        20  POP14       0.0263
  1895 H17S        28.7640    23.7230     0.4470 H        20  POP14       0.0263
  1896 C218        26.8290    22.7670     0.3460 C.3      20  POP14      -0.0653
  1897 H18R        26.6580    22.9670    -0.7190 H        20  POP14       0.0230
  1898 H18S        26.3340    23.5840     0.8930 H        20  POP14       0.0230
  1899 H18T        26.3010    21.7640     0.5140 H        20  POP14       0.0230
  1900 C33         22.8810    22.1250    13.4890 C.3      20  POP14      -0.0441
  1901 H3X         23.8650    21.5950    13.7130 H        20  POP14       0.0270
  1902 H3Y         23.0100    23.1940    13.5380 H        20  POP14       0.0270
  1903 C34         22.4350    21.6390    12.0680 C.3      20  POP14      -0.0526
  1904 H4X         21.4800    21.8930    11.8080 H        20  POP14       0.0265
  1905 H4Y         22.4010    20.5600    11.9700 H        20  POP14       0.0265
  1906 C35         23.3380    22.0750    10.9390 C.3      20  POP14      -0.0530
  1907 H5X         24.4070    21.9010    11.2530 H        20  POP14       0.0265
  1908 H5Y         23.3530    23.1930    10.7820 H        20  POP14       0.0265
  1909 C36         23.0000    21.3910     9.5380 C.3      20  POP14      -0.0531
  1910 H6X         21.8950    21.3150     9.3870 H        20  POP14       0.0265
  1911 H6Y         23.2740    20.3490     9.7310 H        20  POP14       0.0265
  1912 C37         23.7020    22.0400     8.3460 C.3      20  POP14      -0.0531
  1913 H7X         24.6590    22.3640     8.7500 H        20  POP14       0.0265
  1914 H7Y         23.1460    23.0720     8.2150 H        20  POP14       0.0265
  1915 C38         23.9180    21.1330     7.1780 C.3      20  POP14      -0.0531
  1916 H8X         22.9680    20.7900     6.6820 H        20  POP14       0.0265
  1917 H8Y         24.5180    20.2880     7.4840 H        20  POP14       0.0265
  1918 C39         24.6650    21.8990     6.1680 C.3      20  POP14      -0.0531
  1919 H9X         25.0510    21.0890     5.5350 H        20  POP14       0.0265
  1920 H9Y         25.6300    22.4490     6.5480 H        20  POP14       0.0265
  1921 C310        23.9400    22.9460     5.3260 C.3      20  POP14      -0.0531
  1922 H10X        23.9460    24.0350     5.7490 H        20  POP14       0.0265
  1923 H10Y        22.8620    22.6610     5.2650 H        20  POP14       0.0265
  1924 C311        24.4030    23.0710     3.8740 C.3      20  POP14      -0.0531
  1925 H11X        25.5210    22.8920     3.8700 H        20  POP14       0.0265
  1926 H11Y        24.2920    24.0740     3.4640 H        20  POP14       0.0265
  1927 C312        23.8040    22.1360     2.8150 C.3      20  POP14      -0.0531
  1928 H12X        23.8810    22.7910     1.9340 H        20  POP14       0.0265
  1929 H12Y        22.7710    21.9880     3.0290 H        20  POP14       0.0265
  1930 C313        24.5600    20.7820     2.6720 C.3      20  POP14      -0.0531
  1931 H13X        24.5190    20.1730     3.5960 H        20  POP14       0.0265
  1932 H13Y        25.6930    21.0910     2.4300 H        20  POP14       0.0265
  1933 C314        24.1470    19.9620     1.5110 C.3      20  POP14      -0.0533
  1934 H14X        24.3790    20.4330     0.4140 H        20  POP14       0.0265
  1935 H14Y        23.0490    19.8610     1.6480 H        20  POP14       0.0265
  1936 C315        24.6510    18.5910     1.3980 C.3      20  POP14      -0.0559
  1937 H15X        24.0220    17.8940     0.8550 H        20  POP14       0.0263
  1938 H15Y        24.6320    18.1260     2.4480 H        20  POP14       0.0263
  1939 C316        26.1250    18.4540     0.9640 C.3      20  POP14      -0.0653
  1940 H16X        26.7790    17.8650     1.6590 H        20  POP14       0.0230
  1941 H16Y        26.5630    19.4490     0.8370 H        20  POP14       0.0230
  1942 H16Z        26.1760    18.0330    -0.0970 H        20  POP14       0.0230
  1943 N           -4.6890   -10.5510    26.4070 N.3      21  POP15       0.2385
  1944 C12         -3.2790   -10.9050    26.5420 C.3      21  POP15      -0.0064
  1945 H12A        -3.2150   -11.9760    26.4710 H        21  POP15       0.0838
  1946 H12B        -2.9310   -10.5430    27.5430 H        21  POP15       0.0838
  1947 C13         -5.6580   -11.0800    27.3750 C.3      21  POP15      -0.0417
  1948 H13A        -6.6020   -10.5800    27.3050 H        21  POP15       0.0778
  1949 H13B        -5.8600   -12.2270    27.2930 H        21  POP15       0.0778
  1950 H13C        -5.2490   -11.0110    28.3610 H        21  POP15       0.0778
  1951 C14         -4.8610    -9.0840    26.5810 C.3      21  POP15      -0.0417
  1952 H14A        -4.1270    -8.6230    25.9070 H        21  POP15       0.0778
  1953 H14B        -5.8720    -8.8080    26.2810 H        21  POP15       0.0778
  1954 H14C        -4.6680    -8.7960    27.6120 H        21  POP15       0.0778
  1955 C15         -5.0640   -10.8600    25.0070 C.3      21  POP15      -0.0417
  1956 H15A        -4.3500   -10.4480    24.3280 H        21  POP15       0.0778
  1957 H15B        -5.9300   -10.5120    24.6250 H        21  POP15       0.0778
  1958 H15C        -5.0550   -11.9180    24.8260 H        21  POP15       0.0778
  1959 C11         -2.2530   -10.4670    25.3950 C.3      21  POP15       0.0954
  1960 H11A        -2.6410   -11.0420    24.5520 H        21  POP15       0.0618
  1961 H11B        -1.2490   -10.9060    25.5240 H        21  POP15       0.0618
  1962 P           -2.2030    -8.0990    23.9790 P.3      21  POP15       0.2645
  1963 O13         -1.2330    -7.0320    24.3170 O.co2    21  POP15      -0.5105
  1964 O14         -3.5050    -7.6500    23.5420 O.co2    21  POP15      -0.5105
  1965 O12         -2.2580    -9.0600    25.2550 O.3      21  POP15      -0.3154
  1966 O11         -1.5150    -8.8890    22.8040 O.3      21  POP15      -0.3181
  1967 C1          -2.3500    -9.1310    21.6520 C.3      21  POP15       0.0845
  1968 HA          -2.9800    -8.2850    21.4050 H        21  POP15       0.0591
  1969 HB          -3.0450   -10.0130    21.7890 H        21  POP15       0.0591
  1970 C2          -1.4680    -9.3610    20.3630 C.3      21  POP15       0.1155
  1971 HS          -1.1580   -10.4690    20.4420 H        21  POP15       0.0649
  1972 O21         -0.2710    -8.5490    20.4300 O.3      21  POP15      -0.3072
  1973 C21          0.6650    -8.9920    19.6670 C.2      21  POP15       0.2626
  1974 O22          0.7480   -10.1230    19.1860 O.2      21  POP15      -0.2650
  1975 C22          1.8050    -7.9860    19.6390 C.3      21  POP15       0.0332
  1976 H2R          2.0760    -8.0050    20.7480 H        21  POP15       0.0366
  1977 H2S          1.4970    -6.9800    19.5680 H        21  POP15       0.0366
  1978 C3          -2.4490    -9.2150    19.0970 C.3      21  POP15       0.0860
  1979 HX          -3.0250    -8.3150    19.1370 H        21  POP15       0.0593
  1980 HY          -3.2830    -9.9670    19.1230 H        21  POP15       0.0593
  1981 O31         -1.8430    -9.0270    17.7830 O.3      21  POP15      -0.3125
  1982 C31         -1.7340   -10.1250    17.0320 C.2      21  POP15       0.2622
  1983 O32         -2.2220   -11.1740    17.3430 O.2      21  POP15      -0.2650
  1984 C32         -0.8050    -9.8100    15.8300 C.3      21  POP15       0.0332
  1985 H2X          0.2330    -9.9810    16.1610 H        21  POP15       0.0366
  1986 H2Y         -0.9710    -8.8430    15.4310 H        21  POP15       0.0366
  1987 C23          2.9810    -8.3140    18.7770 C.3      21  POP15      -0.0441
  1988 H3R          3.4910    -9.2410    19.1350 H        21  POP15       0.0270
  1989 H3S          3.8070    -7.6250    19.0060 H        21  POP15       0.0270
  1990 C24          2.8420    -8.2950    17.2370 C.3      21  POP15      -0.0526
  1991 H4R          1.8180    -8.6380    16.9510 H        21  POP15       0.0265
  1992 H4S          3.5970    -9.0050    16.7860 H        21  POP15       0.0265
  1993 C25          2.8070    -6.8830    16.6340 C.3      21  POP15      -0.0530
  1994 H5R          3.4960    -6.2380    17.1170 H        21  POP15       0.0265
  1995 H5S          1.8020    -6.5440    16.9530 H        21  POP15       0.0265
  1996 C26          2.9290    -6.8090    15.1010 C.3      21  POP15      -0.0528
  1997 H6R          2.4680    -5.8100    14.7630 H        21  POP15       0.0265
  1998 H6S          2.4770    -7.6300    14.5750 H        21  POP15       0.0265
  1999 C27          4.3480    -6.6620    14.5360 C.3      21  POP15      -0.0496
  2000 H7R          4.4090    -7.1360    13.4960 H        21  POP15       0.0268
  2001 H7S          4.9580    -7.2640    15.1800 H        21  POP15       0.0268
  2002 C28          4.9220    -5.3260    14.6190 C.3      21  POP15      -0.0348
  2003 H8R          4.9020    -4.9070    15.6340 H        21  POP15       0.0307
  2004 H8S          4.2100    -4.7000    14.1150 H        21  POP15       0.0307
  2005 C29          6.3500    -5.2520    14.0780 C.2      21  POP15      -0.0879
  2006 H91          7.0580    -5.8380    14.7110 H        21  POP15       0.0569
  2007 C210         6.8320    -4.5250    13.1040 C.2      21  POP15      -0.0879
  2008 H101         7.8940    -4.6060    12.8590 H        21  POP15       0.0569
  2009 C211         6.0850    -3.6780    12.1310 C.3      21  POP15      -0.0348
  2010 H11R         6.4880    -2.6750    12.2940 H        21  POP15       0.0307
  2011 H11S         5.0760    -3.5560    12.4260 H        21  POP15       0.0307
  2012 C212         6.1420    -4.1060    10.6750 C.3      21  POP15      -0.0496
  2013 H12R         7.2080    -4.0860    10.4420 H        21  POP15       0.0268
  2014 H12S         5.6990    -3.3410    10.0480 H        21  POP15       0.0268
  2015 C213         5.4060    -5.3700    10.1610 C.3      21  POP15      -0.0528
  2016 H13R         4.3090    -5.1150    10.3430 H        21  POP15       0.0265
  2017 H13S         5.6720    -6.1500    10.8450 H        21  POP15       0.0265
  2018 C214         5.6370    -5.6030     8.7020 C.3      21  POP15      -0.0530
  2019 H14R         6.7410    -5.6490     8.5270 H        21  POP15       0.0265
  2020 H14S         5.3280    -4.6890     8.0650 H        21  POP15       0.0265
  2021 C215         4.9980    -6.7860     7.9770 C.3      21  POP15      -0.0531
  2022 H15R         3.9430    -6.5660     7.6950 H        21  POP15       0.0265
  2023 H15S         4.9680    -7.5210     8.6910 H        21  POP15       0.0265
  2024 C216         5.6070    -7.3010     6.6490 C.3      21  POP15      -0.0533
  2025 H16R         6.7190    -7.5250     6.8490 H        21  POP15       0.0265
  2026 H16S         5.4840    -6.6630     5.7440 H        21  POP15       0.0265
  2027 C217         4.9820    -8.6770     6.1200 C.3      21  POP15      -0.0559
  2028 H17R         3.9400    -8.3170     5.8080 H        21  POP15       0.0263
  2029 H17S         4.8530    -9.3090     7.0470 H        21  POP15       0.0263
  2030 C218         5.7610    -9.2630     5.0530 C.3      21  POP15      -0.0653
  2031 H18R         5.1910   -10.1800     4.6130 H        21  POP15       0.0230
  2032 H18S         6.7450    -9.6430     5.2650 H        21  POP15       0.0230
  2033 H18T         5.8550    -8.4660     4.1890 H        21  POP15       0.0230
  2034 C33         -0.9270   -10.9100    14.7810 C.3      21  POP15      -0.0441
  2035 H3X         -1.9950   -10.9390    14.4850 H        21  POP15       0.0270
  2036 H3Y         -0.6440   -11.9130    15.2250 H        21  POP15       0.0270
  2037 C34         -0.2150   -10.3520    13.4870 C.3      21  POP15      -0.0526
  2038 H4X         -0.5030    -9.2490    13.3620 H        21  POP15       0.0265
  2039 H4Y         -0.6920   -10.9020    12.6490 H        21  POP15       0.0265
  2040 C35          1.2670   -10.5600    13.4720 C.3      21  POP15      -0.0530
  2041 H5X          1.4230   -11.6500    13.3490 H        21  POP15       0.0265
  2042 H5Y          1.6580   -10.2850    14.5100 H        21  POP15       0.0265
  2043 C36          2.0200    -9.6920    12.4970 C.3      21  POP15      -0.0531
  2044 H6X          1.8810    -8.5840    12.7530 H        21  POP15       0.0265
  2045 H6Y          1.6450    -9.7790    11.4830 H        21  POP15       0.0265
  2046 C37          3.4860   -10.0690    12.4060 C.3      21  POP15      -0.0531
  2047 H7X          3.4360   -11.1530    12.0640 H        21  POP15       0.0265
  2048 H7Y          4.0880    -9.9630    13.2940 H        21  POP15       0.0265
  2049 C38          4.1010    -9.1250    11.3790 C.3      21  POP15      -0.0531
  2050 H8X          3.7350    -8.0690    11.6260 H        21  POP15       0.0265
  2051 H8Y          3.7400    -9.4050    10.3820 H        21  POP15       0.0265
  2052 C39          5.6160    -8.9950    11.3900 C.3      21  POP15      -0.0531
  2053 H9X          5.8590    -8.8590    12.4390 H        21  POP15       0.0265
  2054 H9Y          5.8840    -8.1300    10.7560 H        21  POP15       0.0265
  2055 C310         6.2030   -10.3110    10.7460 C.3      21  POP15      -0.0531
  2056 H10X         5.5380   -11.1720    11.1650 H        21  POP15       0.0265
  2057 H10Y         7.2290   -10.4390    11.1870 H        21  POP15       0.0265
  2058 C311         6.2540   -10.3520     9.2010 C.3      21  POP15      -0.0531
  2059 H11X         6.8430    -9.4890     8.9430 H        21  POP15       0.0265
  2060 H11Y         5.1680   -10.1430     9.0300 H        21  POP15       0.0265
  2061 C312         6.6200   -11.7460     8.6540 C.3      21  POP15      -0.0531
  2062 H12X         6.2530   -11.7070     7.5520 H        21  POP15       0.0265
  2063 H12Y         6.1600   -12.5300     9.2910 H        21  POP15       0.0265
  2064 C313         8.1430   -11.9280     8.6160 C.3      21  POP15      -0.0531
  2065 H13X         8.3420   -13.0330     8.5990 H        21  POP15       0.0265
  2066 H13Y         8.6260   -11.5460     9.5150 H        21  POP15       0.0265
  2067 C314         8.7410   -11.2540     7.2950 C.3      21  POP15      -0.0533
  2068 H14X         9.7640   -11.3930     7.3790 H        21  POP15       0.0265
  2069 H14Y         8.4420   -10.1270     7.3990 H        21  POP15       0.0265
  2070 C315         8.3020   -11.9280     5.9860 C.3      21  POP15      -0.0559
  2071 H15X         7.2370   -11.6170     5.7720 H        21  POP15       0.0263
  2072 H15Y         8.4400   -12.9940     6.1360 H        21  POP15       0.0263
  2073 C316         9.1590   -11.6310     4.7550 C.3      21  POP15      -0.0653
  2074 H16X         9.2830   -10.5220     4.6470 H        21  POP15       0.0230
  2075 H16Y         8.7720   -11.9950     3.7950 H        21  POP15       0.0230
  2076 H16Z        10.1690   -12.0890     4.9130 H        21  POP15       0.0230
  2077 N          -18.6530   -17.5370    25.1560 N.3      22  POP16       0.2385
  2078 C12        -17.8230   -17.9500    23.8950 C.3      22  POP16      -0.0064
  2079 H12A       -16.8970   -18.5020    24.2130 H        22  POP16       0.0838
  2080 H12B       -17.4690   -17.0370    23.3810 H        22  POP16       0.0838
  2081 C13        -17.9520   -16.3690    25.7840 C.3      22  POP16      -0.0417
  2082 H13A       -18.0790   -16.4040    26.8770 H        22  POP16       0.0778
  2083 H13B       -16.8800   -16.6580    25.7420 H        22  POP16       0.0778
  2084 H13C       -18.1740   -15.4260    25.2590 H        22  POP16       0.0778
  2085 C14        -20.0960   -17.2270    24.8020 C.3      22  POP16      -0.0417
  2086 H14A       -20.6200   -17.0250    25.6680 H        22  POP16       0.0778
  2087 H14B       -20.2560   -16.3440    24.1060 H        22  POP16       0.0778
  2088 H14C       -20.5500   -18.0890    24.2540 H        22  POP16       0.0778
  2089 C15        -18.6970   -18.7250    26.0770 C.3      22  POP16      -0.0417
  2090 H15A       -19.2910   -18.3290    26.9090 H        22  POP16       0.0778
  2091 H15B       -17.6950   -18.9430    26.5090 H        22  POP16       0.0778
  2092 H15C       -19.0390   -19.6630    25.7810 H        22  POP16       0.0778
  2093 C11        -18.4910   -18.9030    22.8530 C.3      22  POP16       0.0954
  2094 H11A       -19.3130   -18.3590    22.2720 H        22  POP16       0.0618
  2095 H11B       -19.0100   -19.6470    23.5180 H        22  POP16       0.0618
  2096 P          -16.7260   -18.6170    20.9880 P.3      22  POP16       0.2645
  2097 O13        -15.5750   -19.4330    20.5370 O.co2    22  POP16      -0.5105
  2098 O14        -16.4450   -17.2090    21.4470 O.co2    22  POP16      -0.5105
  2099 O12        -17.4720   -19.4440    22.0870 O.3      22  POP16      -0.3154
  2100 O11        -17.8620   -18.6290    19.9190 O.3      22  POP16      -0.3181
  2101 C1         -17.7190   -19.3750    18.6260 C.3      22  POP16       0.0845
  2102 HA         -18.6550   -19.2500    18.0810 H        22  POP16       0.0591
  2103 HB         -17.5010   -20.3950    18.7630 H        22  POP16       0.0591
  2104 C2         -16.5820   -18.9210    17.6310 C.3      22  POP16       0.1155
  2105 HS         -15.6720   -19.4840    17.7860 H        22  POP16       0.0649
  2106 O21        -16.2160   -17.5380    17.9820 O.3      22  POP16      -0.3072
  2107 C21        -15.1250   -17.0890    17.4220 C.2      22  POP16       0.2626
  2108 O22        -14.2080   -17.7300    16.9190 O.2      22  POP16      -0.2650
  2109 C22        -15.1760   -15.5110    17.3610 C.3      22  POP16       0.0332
  2110 H2R        -15.1920   -15.1110    18.3850 H        22  POP16       0.0366
  2111 H2S        -15.9890   -15.0340    16.7920 H        22  POP16       0.0366
  2112 C3         -17.1170   -19.1460    16.1620 C.3      22  POP16       0.0860
  2113 HX         -18.0830   -18.6210    16.0280 H        22  POP16       0.0593
  2114 HY         -17.3850   -20.2030    15.9240 H        22  POP16       0.0593
  2115 O31        -16.1610   -18.7910    15.1500 O.3      22  POP16      -0.3125
  2116 C31        -15.1520   -19.6330    14.8960 C.2      22  POP16       0.2622
  2117 O32        -14.9280   -20.6730    15.5110 O.2      22  POP16      -0.2650
  2118 C32        -14.3850   -19.0880    13.6820 C.3      22  POP16       0.0332
  2119 H2X        -14.7470   -18.0510    13.4640 H        22  POP16       0.0366
  2120 H2Y        -14.6430   -19.8390    12.8680 H        22  POP16       0.0366
  2121 C23        -13.8600   -14.8110    16.9480 C.3      22  POP16      -0.0441
  2122 H3R        -12.9890   -15.1730    17.5730 H        22  POP16       0.0270
  2123 H3S        -13.9220   -13.7280    17.2650 H        22  POP16       0.0270
  2124 C24        -13.6740   -14.8450    15.3650 C.3      22  POP16      -0.0526
  2125 H4R        -14.0300   -15.8070    14.9360 H        22  POP16       0.0265
  2126 H4S        -12.5530   -14.8460    15.3000 H        22  POP16       0.0265
  2127 C25        -14.2000   -13.6390    14.5850 C.3      22  POP16      -0.0530
  2128 H5R        -13.4920   -12.8010    14.7380 H        22  POP16       0.0265
  2129 H5S        -15.1580   -13.2420    14.8950 H        22  POP16       0.0265
  2130 C26        -14.2800   -13.9160    13.0930 C.3      22  POP16      -0.0528
  2131 H6R        -15.0650   -14.7230    12.8110 H        22  POP16       0.0265
  2132 H6S        -13.3550   -14.4070    12.7270 H        22  POP16       0.0265
  2133 C27        -14.5860   -12.7490    12.2210 C.3      22  POP16      -0.0496
  2134 H7R        -13.8770   -11.9480    12.5230 H        22  POP16       0.0268
  2135 H7S        -15.6140   -12.3500    12.3090 H        22  POP16       0.0268
  2136 C28        -14.2120   -13.0590    10.7310 C.3      22  POP16      -0.0348
  2137 H8R        -13.1350   -13.3460    10.7000 H        22  POP16       0.0307
  2138 H8S        -14.1730   -12.0930    10.1840 H        22  POP16       0.0307
  2139 C29        -15.2250   -13.9960    10.0890 C.2      22  POP16      -0.0879
  2140 H91        -16.2590   -13.6410    10.0210 H        22  POP16       0.0569
  2141 C210       -14.9160   -15.1740     9.5800 C.2      22  POP16      -0.0879
  2142 H101       -15.7710   -15.7680     9.2560 H        22  POP16       0.0569
  2143 C211       -13.5520   -15.8870     9.6100 C.3      22  POP16      -0.0348
  2144 H11R       -13.0960   -15.8110    10.6350 H        22  POP16       0.0307
  2145 H11S       -12.9050   -15.4230     8.8590 H        22  POP16       0.0307
  2146 C212       -13.5240   -17.4090     9.2130 C.3      22  POP16      -0.0496
  2147 H12R       -14.3060   -17.9130     9.7800 H        22  POP16       0.0268
  2148 H12S       -12.5390   -17.6740     9.5660 H        22  POP16       0.0268
  2149 C213       -13.6580   -17.7670     7.7120 C.3      22  POP16      -0.0528
  2150 H13R       -12.9020   -17.1050     7.2100 H        22  POP16       0.0265
  2151 H13S       -14.6130   -17.4590     7.4200 H        22  POP16       0.0265
  2152 C214       -13.3840   -19.1840     7.1880 C.3      22  POP16      -0.0530
  2153 H14R       -13.2220   -19.1570     6.0380 H        22  POP16       0.0265
  2154 H14S       -14.2690   -19.8460     7.3870 H        22  POP16       0.0265
  2155 C215       -12.2280   -19.9150     7.8650 C.3      22  POP16      -0.0531
  2156 H15R       -12.2270   -21.0100     7.4650 H        22  POP16       0.0265
  2157 H15S       -12.5010   -20.0500     8.8790 H        22  POP16       0.0265
  2158 C216       -10.8730   -19.1270     7.7880 C.3      22  POP16      -0.0533
  2159 H16R       -10.8570   -18.0790     8.1510 H        22  POP16       0.0265
  2160 H16S       -10.6130   -19.0700     6.6860 H        22  POP16       0.0265
  2161 C217        -9.7430   -19.9710     8.3480 C.3      22  POP16      -0.0559
  2162 H17R       -10.1380   -20.2930     9.3600 H        22  POP16       0.0263
  2163 H17S        -8.8690   -19.3940     8.4240 H        22  POP16       0.0263
  2164 C218        -9.3670   -21.2680     7.4480 C.3      22  POP16      -0.0653
  2165 H18R        -8.7720   -21.9120     8.0620 H        22  POP16       0.0230
  2166 H18S        -8.9150   -20.9020     6.4760 H        22  POP16       0.0230
  2167 H18T       -10.2590   -21.8940     7.2270 H        22  POP16       0.0230
  2168 C33        -12.8330   -19.0510    13.9390 C.3      22  POP16      -0.0441
  2169 H3X        -12.3070   -19.9590    14.1430 H        22  POP16       0.0270
  2170 H3Y        -12.7130   -18.4150    14.8260 H        22  POP16       0.0270
  2171 C34        -12.0740   -18.2480    12.8040 C.3      22  POP16      -0.0526
  2172 H4X        -12.3740   -17.1800    12.8580 H        22  POP16       0.0265
  2173 H4Y        -12.5140   -18.8310    11.8510 H        22  POP16       0.0265
  2174 C35        -10.6240   -18.3130    12.9090 C.3      22  POP16      -0.0530
  2175 H5X        -10.3350   -19.3890    12.8840 H        22  POP16       0.0265
  2176 H5Y        -10.2450   -17.7940    13.8040 H        22  POP16       0.0265
  2177 C36         -9.8760   -17.6610    11.7450 C.3      22  POP16      -0.0531
  2178 H6X        -10.3370   -16.6360    11.5910 H        22  POP16       0.0265
  2179 H6Y        -10.0170   -18.3100    10.8610 H        22  POP16       0.0265
  2180 C37         -8.3240   -17.6430    12.0030 C.3      22  POP16      -0.0531
  2181 H7X         -7.9630   -18.6440    11.8440 H        22  POP16       0.0265
  2182 H7Y         -8.1140   -17.3520    13.0580 H        22  POP16       0.0265
  2183 C38         -7.5280   -16.5920    11.1950 C.3      22  POP16      -0.0531
  2184 H8X         -6.4500   -16.5030    11.5940 H        22  POP16       0.0265
  2185 H8Y         -8.0160   -15.6100    11.1220 H        22  POP16       0.0265
  2186 C39         -7.4300   -17.1230     9.7380 C.3      22  POP16      -0.0531
  2187 H9X         -8.4720   -17.1970     9.4050 H        22  POP16       0.0265
  2188 H9Y         -6.8240   -18.0730     9.7020 H        22  POP16       0.0265
  2189 C310        -6.7560   -16.0350     8.7840 C.3      22  POP16      -0.0531
  2190 H10X        -5.7410   -15.7690     9.1490 H        22  POP16       0.0265
  2191 H10Y        -7.3750   -15.1370     8.9350 H        22  POP16       0.0265
  2192 C311        -6.7700   -16.3580     7.2840 C.3      22  POP16      -0.0531
  2193 H11X        -7.8010   -16.5510     7.1400 H        22  POP16       0.0265
  2194 H11Y        -6.3420   -17.3370     7.0310 H        22  POP16       0.0265
  2195 C312        -6.1130   -15.2430     6.4930 C.3      22  POP16      -0.0531
  2196 H12X        -5.0830   -15.1270     6.8410 H        22  POP16       0.0265
  2197 H12Y        -6.6820   -14.3260     6.6970 H        22  POP16       0.0265
  2198 C313        -6.1020   -15.4560     4.9830 C.3      22  POP16      -0.0531
  2199 H13X        -5.5590   -16.4540     4.7690 H        22  POP16       0.0265
  2200 H13Y        -5.5540   -14.6240     4.5050 H        22  POP16       0.0265
  2201 C314        -7.4680   -15.6390     4.3820 C.3      22  POP16      -0.0533
  2202 H14X        -8.1150   -14.7290     4.7010 H        22  POP16       0.0265
  2203 H14Y        -7.9470   -16.5610     4.8160 H        22  POP16       0.0265
  2204 C315        -7.4650   -15.8380     2.8410 C.3      22  POP16      -0.0559
  2205 H15X        -6.4390   -15.5680     2.4570 H        22  POP16       0.0263
  2206 H15Y        -8.2430   -15.1700     2.3030 H        22  POP16       0.0263
  2207 C316        -7.7100   -17.2740     2.4000 C.3      22  POP16      -0.0653
  2208 H16X        -8.7270   -17.6810     2.7550 H        22  POP16       0.0230
  2209 H16Y        -6.9090   -17.9130     2.7490 H        22  POP16       0.0230
  2210 H16Z        -7.6640   -17.1560     1.3200 H        22  POP16       0.0230
  2211 N           14.9440     8.5350    21.7660 N.3      23  POP17       0.2385
  2212 C12         15.6110     9.9210    21.7040 C.3      23  POP17      -0.0064
  2213 H12A        16.5150     9.8470    21.0400 H        23  POP17       0.0838
  2214 H12B        15.9230    10.1460    22.7250 H        23  POP17       0.0838
  2215 C13         14.1000     8.3000    20.5330 C.3      23  POP17      -0.0417
  2216 H13A        13.6410     7.2910    20.5880 H        23  POP17       0.0778
  2217 H13B        13.3310     9.0770    20.3760 H        23  POP17       0.0778
  2218 H13C        14.7320     8.3960    19.6890 H        23  POP17       0.0778
  2219 C14         15.9930     7.4900    21.9520 C.3      23  POP17      -0.0417
  2220 H14A        16.8230     7.5670    21.1580 H        23  POP17       0.0778
  2221 H14B        16.5580     7.6570    22.8560 H        23  POP17       0.0778
  2222 H14C        15.5540     6.5420    21.9260 H        23  POP17       0.0778
  2223 C15         14.0080     8.3510    22.9270 C.3      23  POP17      -0.0417
  2224 H15A        13.6500     7.3540    22.8180 H        23  POP17       0.0778
  2225 H15B        13.2060     8.9780    22.8380 H        23  POP17       0.0778
  2226 H15C        14.5090     8.4330    23.8750 H        23  POP17       0.0778
  2227 C11         14.8050    11.1890    21.1450 C.3      23  POP17       0.0954
  2228 H11A        14.4060    11.0440    20.1260 H        23  POP17       0.0618
  2229 H11B        15.4930    12.0700    21.0940 H        23  POP17       0.0618
  2230 P           12.2730    11.3600    21.9880 P.3      23  POP17       0.2645
  2231 O13         11.7590    10.9990    23.3370 O.co2    23  POP17      -0.5105
  2232 O14         11.9500    10.5100    20.7970 O.co2    23  POP17      -0.5105
  2233 O12         13.7870    11.6070    22.1120 O.3      23  POP17      -0.3154
  2234 O11         11.7540    12.8420    21.6980 O.3      23  POP17      -0.3181
  2235 C1          12.1930    13.6510    20.5610 C.3      23  POP17       0.0845
  2236 HA          13.0500    13.1780    19.9280 H        23  POP17       0.0591
  2237 HB          12.6540    14.6100    21.0320 H        23  POP17       0.0591
  2238 C2          11.1480    13.9780    19.4520 C.3      23  POP17       0.1155
  2239 HS          10.2590    14.3630    19.9580 H        23  POP17       0.0649
  2240 O21         10.7930    12.7770    18.7110 O.3      23  POP17      -0.3072
  2241 C21          9.6510    12.2590    19.0590 C.2      23  POP17       0.2626
  2242 O22          8.8870    12.6790    19.8920 O.2      23  POP17      -0.2650
  2243 C22          9.2760    11.0140    18.2100 C.3      23  POP17       0.0332
  2244 H2R          9.0990    10.1160    18.8720 H        23  POP17       0.0366
  2245 H2S         10.0970    10.8900    17.4350 H        23  POP17       0.0366
  2246 C3          11.5280    15.2140    18.4980 C.3      23  POP17       0.0860
  2247 HX          12.3830    14.8590    17.8420 H        23  POP17       0.0593
  2248 HY          11.9240    16.0320    19.1710 H        23  POP17       0.0593
  2249 O31         10.4340    15.6010    17.6410 O.3      23  POP17      -0.3125
  2250 C31          9.8860    16.7860    17.9520 C.2      23  POP17       0.2622
  2251 O32         10.1200    17.4330    18.9550 O.2      23  POP17      -0.2650
  2252 C32          8.7960    17.0440    16.9390 C.3      23  POP17       0.0332
  2253 H2X          7.7950    17.1690    17.4630 H        23  POP17       0.0366
  2254 H2Y          8.7890    16.2280    16.2440 H        23  POP17       0.0366
  2255 C23          7.9040    11.0500    17.4080 C.3      23  POP17      -0.0441
  2256 H3R          7.1790    11.3340    18.1890 H        23  POP17       0.0270
  2257 H3S          7.6710    10.0100    17.0100 H        23  POP17       0.0270
  2258 C24          7.7730    12.0940    16.2740 C.3      23  POP17      -0.0526
  2259 H4R          7.2200    11.7340    15.4050 H        23  POP17       0.0265
  2260 H4S          8.8040    12.3270    16.0000 H        23  POP17       0.0265
  2261 C25          6.9730    13.4240    16.6860 C.3      23  POP17      -0.0530
  2262 H5R          7.5170    14.0040    17.4410 H        23  POP17       0.0265
  2263 H5S          6.1450    12.9210    17.2480 H        23  POP17       0.0265
  2264 C26          6.3920    14.3340    15.5750 C.3      23  POP17      -0.0528
  2265 H6R          5.7970    13.6750    14.9540 H        23  POP17       0.0265
  2266 H6S          7.0830    14.9150    14.9140 H        23  POP17       0.0265
  2267 C27          5.4180    15.4260    16.1170 C.3      23  POP17      -0.0496
  2268 H7R          6.1110    15.9310    16.8450 H        23  POP17       0.0268
  2269 H7S          4.5030    15.1410    16.6210 H        23  POP17       0.0268
  2270 C28          4.8630    16.4940    15.1320 C.3      23  POP17      -0.0348
  2271 H8R          5.7090    17.1690    14.8210 H        23  POP17       0.0307
  2272 H8S          4.2690    17.2190    15.6380 H        23  POP17       0.0307
  2273 C29          4.3620    15.7280    13.9560 C.2      23  POP17      -0.0879
  2274 H91          3.6670    14.9120    14.2660 H        23  POP17       0.0569
  2275 C210         4.8440    15.6510    12.7020 C.2      23  POP17      -0.0879
  2276 H101         4.2410    15.0610    11.9610 H        23  POP17       0.0569
  2277 C211         5.9540    16.5190    12.1470 C.3      23  POP17      -0.0348
  2278 H11R         6.3040    16.1230    11.1650 H        23  POP17       0.0307
  2279 H11S         6.8480    16.5570    12.8090 H        23  POP17       0.0307
  2280 C212         5.5780    17.9630    11.9820 C.3      23  POP17      -0.0496
  2281 H12R         5.2250    18.3150    12.9890 H        23  POP17       0.0268
  2282 H12S         4.7340    17.9770    11.3000 H        23  POP17       0.0268
  2283 C213         6.6580    18.8740    11.3990 C.3      23  POP17      -0.0528
  2284 H13R         7.3630    18.9940    12.1740 H        23  POP17       0.0265
  2285 H13S         6.1400    19.8740    11.1980 H        23  POP17       0.0265
  2286 C214         7.2940    18.4040    10.1760 C.3      23  POP17      -0.0530
  2287 H14R         6.4310    18.0830     9.4920 H        23  POP17       0.0265
  2288 H14S         7.8340    17.5200    10.4080 H        23  POP17       0.0265
  2289 C215         8.1480    19.4670     9.5320 C.3      23  POP17      -0.0531
  2290 H15R         8.8060    19.9290    10.2770 H        23  POP17       0.0265
  2291 H15S         7.4240    20.2900     9.2850 H        23  POP17       0.0265
  2292 C216         8.8370    19.0380     8.2010 C.3      23  POP17      -0.0533
  2293 H16R         7.9820    18.8200     7.4720 H        23  POP17       0.0265
  2294 H16S         9.4570    18.1260     8.3360 H        23  POP17       0.0265
  2295 C217         9.7100    20.1060     7.6300 C.3      23  POP17      -0.0559
  2296 H17R        10.5510    20.2170     8.2800 H        23  POP17       0.0263
  2297 H17S         9.1470    21.0860     7.4820 H        23  POP17       0.0263
  2298 C218        10.3310    19.9060     6.2230 C.3      23  POP17      -0.0653
  2299 H18R        10.9570    20.7790     6.0610 H        23  POP17       0.0230
  2300 H18S        11.0150    19.0230     6.2280 H        23  POP17       0.0230
  2301 H18T         9.5620    19.7270     5.4380 H        23  POP17       0.0230
  2302 C33          8.7690    18.3760    16.1290 C.3      23  POP17      -0.0441
  2303 H3X          8.9750    19.2390    16.8210 H        23  POP17       0.0270
  2304 H3Y          7.6940    18.4600    15.7980 H        23  POP17       0.0270
  2305 C34          9.5800    18.3610    14.8590 C.3      23  POP17      -0.0526
  2306 H4X          9.1040    17.6880    14.2010 H        23  POP17       0.0265
  2307 H4Y         10.6060    17.8860    14.9590 H        23  POP17       0.0265
  2308 C35          9.6640    19.7600    14.2010 C.3      23  POP17      -0.0530
  2309 H5X         10.0800    20.5980    14.8490 H        23  POP17       0.0265
  2310 H5Y          8.5940    20.0380    13.8680 H        23  POP17       0.0265
  2311 C36         10.5500    19.9360    12.9600 C.3      23  POP17      -0.0531
  2312 H6X         10.5700    20.9590    12.6480 H        23  POP17       0.0265
  2313 H6Y         10.2470    19.3690    12.0450 H        23  POP17       0.0265
  2314 C37         12.0170    19.5850    13.3070 C.3      23  POP17      -0.0531
  2315 H7X         12.0550    18.5540    13.4820 H        23  POP17       0.0265
  2316 H7Y         12.2650    20.1360    14.1900 H        23  POP17       0.0265
  2317 C38         13.0410    19.8830    12.2230 C.3      23  POP17      -0.0531
  2318 H8X         14.0710    19.6600    12.5550 H        23  POP17       0.0265
  2319 H8Y         12.9710    21.0090    12.0990 H        23  POP17       0.0265
  2320 C39         12.7350    19.2190    10.8780 C.3      23  POP17      -0.0531
  2321 H9X         11.7230    19.5080    10.5300 H        23  POP17       0.0265
  2322 H9Y         12.5930    18.0570    11.0630 H        23  POP17       0.0265
  2323 C310        13.7920    19.4960     9.8300 C.3      23  POP17      -0.0531
  2324 H10X        14.5610    18.6750     9.8740 H        23  POP17       0.0265
  2325 H10Y        14.3120    20.4050    10.0360 H        23  POP17       0.0265
  2326 C311        13.2480    19.6910     8.4270 C.3      23  POP17      -0.0531
  2327 H11X        12.9030    20.7490     8.3690 H        23  POP17       0.0265
  2328 H11Y        12.4650    18.9170     8.1130 H        23  POP17       0.0265
  2329 C312        14.4060    19.5340     7.4500 C.3      23  POP17      -0.0531
  2330 H12X        14.8240    18.5450     7.4810 H        23  POP17       0.0265
  2331 H12Y        15.2630    20.0650     7.8080 H        23  POP17       0.0265
  2332 C313        13.9060    19.7680     5.9760 C.3      23  POP17      -0.0531
  2333 H13X        13.5810    20.7920     5.7890 H        23  POP17       0.0265
  2334 H13Y        13.0600    19.0950     5.7260 H        23  POP17       0.0265
  2335 C314        15.0900    19.5410     5.0000 C.3      23  POP17      -0.0533
  2336 H14X        15.2560    18.4650     4.9040 H        23  POP17       0.0265
  2337 H14Y        15.9680    20.0160     5.5440 H        23  POP17       0.0265
  2338 C315        14.9030    20.0250     3.4770 C.3      23  POP17      -0.0559
  2339 H15X        15.8880    19.8070     3.0210 H        23  POP17       0.0263
  2340 H15Y        14.6570    21.1410     3.5150 H        23  POP17       0.0263
  2341 C316        13.7840    19.2600     2.6620 C.3      23  POP17      -0.0653
  2342 H16X        12.8730    19.1170     3.2440 H        23  POP17       0.0230
  2343 H16Y        14.2800    18.2520     2.3240 H        23  POP17       0.0230
  2344 H16Z        13.6080    19.9030     1.7370 H        23  POP17       0.0230
  2345 N           25.6870   -31.7410    20.1200 N.3      24  POP18       0.2385
  2346 C12         24.3300   -31.0760    20.2380 C.3      24  POP18      -0.0064
  2347 H12A        24.3300   -30.0320    19.8890 H        24  POP18       0.0838
  2348 H12B        23.9940   -30.9680    21.2640 H        24  POP18       0.0838
  2349 C13         26.1530   -32.0680    18.7240 C.3      24  POP18      -0.0417
  2350 H13A        27.0330   -32.7510    18.8110 H        24  POP18       0.0778
  2351 H13B        25.3730   -32.4940    18.0340 H        24  POP18       0.0778
  2352 H13C        26.3800   -31.1660    18.1380 H        24  POP18       0.0778
  2353 C14         26.6380   -30.7180    20.6670 C.3      24  POP18      -0.0417
  2354 H14A        26.4410   -30.4680    21.7330 H        24  POP18       0.0778
  2355 H14B        27.7110   -31.0990    20.6490 H        24  POP18       0.0778
  2356 H14C        26.5880   -29.8440    20.0760 H        24  POP18       0.0778
  2357 C15         25.7570   -32.9310    21.0560 C.3      24  POP18      -0.0417
  2358 H15A        24.9310   -33.6450    20.8660 H        24  POP18       0.0778
  2359 H15B        25.6220   -32.8010    22.0920 H        24  POP18       0.0778
  2360 H15C        26.6480   -33.4980    20.8910 H        24  POP18       0.0778
  2361 C11         23.1430   -31.7150    19.5080 C.3      24  POP18       0.0954
  2362 H11A        23.4610   -31.9660    18.4590 H        24  POP18       0.0618
  2363 H11B        22.2360   -31.0340    19.2630 H        24  POP18       0.0618
  2364 P           21.5450   -32.9920    21.0650 P.3      24  POP18       0.2645
  2365 O13         21.4270   -31.7780    22.0010 O.co2    24  POP18      -0.5105
  2366 O14         21.7620   -34.2810    21.7220 O.co2    24  POP18      -0.5105
  2367 O12         22.7920   -32.9090    20.1980 O.3      24  POP18      -0.3154
  2368 O11         20.4320   -33.0080    19.9110 O.3      24  POP18      -0.3181
  2369 C1          19.8440   -34.2910    19.5620 C.3      24  POP18       0.0845
  2370 HA          18.7300   -34.0750    19.3650 H        24  POP18       0.0591
  2371 HB          19.8090   -35.0360    20.4000 H        24  POP18       0.0591
  2372 C2          20.5220   -34.8860    18.3060 C.3      24  POP18       0.1155
  2373 HS          21.5890   -35.0050    18.6790 H        24  POP18       0.0649
  2374 O21         20.5760   -33.8440    17.2650 O.3      24  POP18      -0.3072
  2375 C21         21.7940   -33.8050    16.5810 C.2      24  POP18       0.2626
  2376 O22         22.7110   -34.4770    16.8210 O.2      24  POP18      -0.2650
  2377 C22         21.7580   -32.8270    15.3940 C.3      24  POP18       0.0332
  2378 H2R         22.8690   -32.7050    15.0300 H        24  POP18       0.0366
  2379 H2S         21.4510   -31.8150    15.7050 H        24  POP18       0.0366
  2380 C3          19.8950   -36.2370    17.9850 C.3      24  POP18       0.0860
  2381 HX          18.8750   -36.0510    17.7250 H        24  POP18       0.0593
  2382 HY          20.0040   -36.8470    18.9250 H        24  POP18       0.0593
  2383 O31         20.5670   -36.8360    16.8220 O.3      24  POP18      -0.3125
  2384 C31         19.9550   -37.8930    16.2760 C.2      24  POP18       0.2622
  2385 O32         18.8660   -38.3140    16.5920 O.2      24  POP18      -0.2650
  2386 C32         20.8290   -38.4580    15.1630 C.3      24  POP18       0.0332
  2387 H2X         20.6160   -39.5530    15.0110 H        24  POP18       0.0366
  2388 H2Y         21.8790   -38.3140    15.5360 H        24  POP18       0.0366
  2389 C23         20.7730   -33.4300    14.3690 C.3      24  POP18      -0.0441
  2390 H3R         19.8930   -33.7500    14.9960 H        24  POP18       0.0270
  2391 H3S         21.2880   -34.2890    13.8610 H        24  POP18       0.0270
  2392 C24         20.3150   -32.3860    13.2850 C.3      24  POP18      -0.0526
  2393 H4R         19.8590   -31.5830    13.9060 H        24  POP18       0.0265
  2394 H4S         19.5600   -32.7760    12.6370 H        24  POP18       0.0265
  2395 C25         21.3640   -31.6890    12.4290 C.3      24  POP18      -0.0530
  2396 H5R         22.1070   -32.4980    12.0750 H        24  POP18       0.0265
  2397 H5S         21.7950   -30.9200    12.9820 H        24  POP18       0.0265
  2398 C26         20.7530   -31.0080    11.1840 C.3      24  POP18      -0.0528
  2399 H6R         21.5070   -30.2950    10.8210 H        24  POP18       0.0265
  2400 H6S         19.8150   -30.5070    11.4410 H        24  POP18       0.0265
  2401 C27         20.1940   -32.0280    10.2040 C.3      24  POP18      -0.0496
  2402 H7R         19.4390   -32.6470    10.6780 H        24  POP18       0.0268
  2403 H7S         20.9940   -32.6910     9.8610 H        24  POP18       0.0268
  2404 C28         19.6450   -31.3000     9.0380 C.3      24  POP18      -0.0348
  2405 H8R         20.4900   -31.0800     8.3840 H        24  POP18       0.0307
  2406 H8S         19.1540   -30.2580     9.3810 H        24  POP18       0.0307
  2407 C29         18.6940   -32.3020     8.2720 C.2      24  POP18      -0.0879
  2408 H91         17.7400   -32.7360     8.8230 H        24  POP18       0.0569
  2409 C210        18.7690   -32.7350     7.0350 C.2      24  POP18      -0.0879
  2410 H101        18.0380   -33.4920     6.7210 H        24  POP18       0.0569
  2411 C211        19.7740   -32.2460     6.0480 C.3      24  POP18      -0.0348
  2412 H11R        20.1540   -31.2960     6.3820 H        24  POP18       0.0307
  2413 H11S        19.2100   -31.8530     5.0990 H        24  POP18       0.0307
  2414 C212        20.8850   -33.1590     5.6130 C.3      24  POP18      -0.0496
  2415 H12R        20.3020   -34.0230     5.1840 H        24  POP18       0.0268
  2416 H12S        21.4530   -33.4670     6.5670 H        24  POP18       0.0268
  2417 C213        21.8650   -32.5100     4.6950 C.3      24  POP18      -0.0528
  2418 H13R        22.2780   -31.5780     5.0440 H        24  POP18       0.0265
  2419 H13S        21.3610   -32.2040     3.7180 H        24  POP18       0.0265
  2420 C214        23.0210   -33.4890     4.4190 C.3      24  POP18      -0.0530
  2421 H14R        23.2380   -33.9380     5.4020 H        24  POP18       0.0265
  2422 H14S        23.9470   -32.9730     4.0140 H        24  POP18       0.0265
  2423 C215        22.7440   -34.6290     3.3650 C.3      24  POP18      -0.0531
  2424 H15R        21.7510   -35.0690     3.5950 H        24  POP18       0.0265
  2425 H15S        23.5040   -35.4180     3.3850 H        24  POP18       0.0265
  2426 C216        22.8730   -34.2790     1.8970 C.3      24  POP18      -0.0533
  2427 H16R        23.9240   -34.0520     1.6520 H        24  POP18       0.0265
  2428 H16S        22.3480   -33.2790     1.8260 H        24  POP18       0.0265
  2429 C217        22.3180   -35.3100     0.8480 C.3      24  POP18      -0.0559
  2430 H17R        22.5960   -34.9710    -0.2290 H        24  POP18       0.0263
  2431 H17S        21.1950   -35.3470     0.9580 H        24  POP18       0.0263
  2432 C218        22.8840   -36.7590     0.9370 C.3      24  POP18      -0.0653
  2433 H18R        22.7450   -37.0910    -0.0880 H        24  POP18       0.0230
  2434 H18S        22.3650   -37.3870     1.6190 H        24  POP18       0.0230
  2435 H18T        23.9890   -36.8540     1.0740 H        24  POP18       0.0230
  2436 C33         20.7270   -37.5870    13.8910 C.3      24  POP18      -0.0441
  2437 H3X         20.8490   -36.5210    14.0360 H        24  POP18       0.0270
  2438 H3Y         19.7370   -37.8030    13.5800 H        24  POP18       0.0270
  2439 C34         21.6410   -38.0780    12.8220 C.3      24  POP18      -0.0526
  2440 H4X         22.7190   -38.0470    13.0500 H        24  POP18       0.0265
  2441 H4Y         21.4450   -37.3860    12.0130 H        24  POP18       0.0265
  2442 C35         21.2660   -39.5080    12.3110 C.3      24  POP18      -0.0530
  2443 H5X         21.3570   -40.2510    13.1420 H        24  POP18       0.0265
  2444 H5Y         22.1270   -39.8090    11.6920 H        24  POP18       0.0265
  2445 C36         19.8890   -39.6330    11.5560 C.3      24  POP18      -0.0531
  2446 H6X         19.9900   -38.9440    10.6990 H        24  POP18       0.0265
  2447 H6Y         19.0650   -39.2750    12.2480 H        24  POP18       0.0265
  2448 C37         19.5140   -41.0960    11.2700 C.3      24  POP18      -0.0531
  2449 H7X         19.5050   -41.6500    12.2050 H        24  POP18       0.0265
  2450 H7Y         20.3400   -41.3980    10.6260 H        24  POP18       0.0265
  2451 C38         18.1550   -41.3310    10.5560 C.3      24  POP18      -0.0531
  2452 H8X         17.3840   -40.6330    10.9280 H        24  POP18       0.0265
  2453 H8Y         17.8890   -42.3750    10.6570 H        24  POP18       0.0265
  2454 C39         18.1760   -40.8520     9.0590 C.3      24  POP18      -0.0531
  2455 H9X         18.8750   -41.5090     8.3520 H        24  POP18       0.0265
  2456 H9Y         18.6580   -39.8670     9.0700 H        24  POP18       0.0265
  2457 C310        16.7200   -40.8690     8.4620 C.3      24  POP18      -0.0531
  2458 H10X        16.1850   -40.0200     8.8910 H        24  POP18       0.0265
  2459 H10Y        16.2270   -41.7120     8.8270 H        24  POP18       0.0265
  2460 C311        16.8030   -40.7870     6.9220 C.3      24  POP18      -0.0531
  2461 H11X        17.3110   -41.6330     6.6360 H        24  POP18       0.0265
  2462 H11Y        17.4080   -39.9180     6.6930 H        24  POP18       0.0265
  2463 C312        15.4300   -40.7070     6.2060 C.3      24  POP18      -0.0531
  2464 H12X        14.8920   -39.7950     6.5850 H        24  POP18       0.0265
  2465 H12Y        14.6890   -41.5350     6.3950 H        24  POP18       0.0265
  2466 C313        15.5170   -40.5440     4.6380 C.3      24  POP18      -0.0531
  2467 H13X        16.1630   -39.7210     4.2960 H        24  POP18       0.0265
  2468 H13Y        14.4460   -40.3210     4.4400 H        24  POP18       0.0265
  2469 C314        16.0010   -41.8380     3.9570 C.3      24  POP18      -0.0533
  2470 H14X        15.3110   -42.6770     4.1230 H        24  POP18       0.0265
  2471 H14Y        16.9380   -42.1540     4.3770 H        24  POP18       0.0265
  2472 C315        16.0930   -41.5530     2.4340 C.3      24  POP18      -0.0559
  2473 H15X        16.8810   -40.8140     2.2740 H        24  POP18       0.0263
  2474 H15Y        15.1890   -41.1260     2.0010 H        24  POP18       0.0263
  2475 C316        16.5600   -42.8440     1.7010 C.3      24  POP18      -0.0653
  2476 H16X        16.8910   -42.5770     0.7000 H        24  POP18       0.0230
  2477 H16Y        15.8140   -43.7070     1.6850 H        24  POP18       0.0230
  2478 H16Z        17.3920   -43.2700     2.2360 H        24  POP18       0.0230
  2479 N            3.2390   -11.2980    27.7690 N.3      25  POP19       0.2385
  2480 C12          2.4820   -11.2390    26.4520 C.3      25  POP19      -0.0064
  2481 H12A         1.7260   -10.4530    26.5930 H        25  POP19       0.0838
  2482 H12B         2.0350   -12.1980    26.3560 H        25  POP19       0.0838
  2483 C13          4.1040   -12.4840    28.0120 C.3      25  POP19      -0.0417
  2484 H13A         5.1260   -12.3410    27.5870 H        25  POP19       0.0778
  2485 H13B         4.3730   -12.6750    29.0130 H        25  POP19       0.0778
  2486 H13C         3.7890   -13.4200    27.5990 H        25  POP19       0.0778
  2487 C14          4.1110   -10.0160    27.8430 C.3      25  POP19      -0.0417
  2488 H14A         4.1800    -9.7410    28.9190 H        25  POP19       0.0778
  2489 H14B         5.1380   -10.1050    27.4750 H        25  POP19       0.0778
  2490 H14C         3.6660    -9.2560    27.2980 H        25  POP19       0.0778
  2491 C15          2.1520   -11.1880    28.7530 C.3      25  POP19      -0.0417
  2492 H15A         1.4570   -10.4070    28.5930 H        25  POP19       0.0778
  2493 H15B         2.5670   -10.9120    29.7340 H        25  POP19       0.0778
  2494 H15C         1.5960   -12.1190    28.8930 H        25  POP19       0.0778
  2495 C11          3.3800   -11.0680    25.1720 C.3      25  POP19       0.0954
  2496 H11A         4.0730   -10.2200    25.3500 H        25  POP19       0.0618
  2497 H11B         2.7710   -10.8490    24.3220 H        25  POP19       0.0618
  2498 P            3.4860   -13.6550    24.5640 P.3      25  POP19       0.2645
  2499 O13          2.1620   -13.8820    25.2100 O.co2    25  POP19      -0.5105
  2500 O14          4.4650   -14.7490    24.7690 O.co2    25  POP19      -0.5105
  2501 O12          4.1490   -12.2390    25.0390 O.3      25  POP19      -0.3154
  2502 O11          3.4070   -13.6490    23.0440 O.3      25  POP19      -0.3181
  2503 C1           2.2090   -13.4020    22.2910 C.3      25  POP19       0.0845
  2504 HA           1.8910   -12.3230    22.4730 H        25  POP19       0.0591
  2505 HB           1.4600   -14.1570    22.6130 H        25  POP19       0.0591
  2506 C2           2.4680   -13.4020    20.7130 C.3      25  POP19       0.1155
  2507 HS           1.5340   -13.0510    20.1050 H        25  POP19       0.0649
  2508 O21          2.8540   -14.6780    20.2230 O.3      25  POP19      -0.3072
  2509 C21          2.0670   -15.6570    20.3690 C.2      25  POP19       0.2626
  2510 O22          1.0510   -15.7200    21.0330 O.2      25  POP19      -0.2650
  2511 C22          2.7550   -16.8530    19.7180 C.3      25  POP19       0.0332
  2512 H2R          2.6360   -17.7780    20.3180 H        25  POP19       0.0366
  2513 H2S          3.8250   -16.5610    19.5920 H        25  POP19       0.0366
  2514 C3           3.5340   -12.3550    20.2290 C.3      25  POP19       0.0860
  2515 HX           4.5270   -12.5890    20.6440 H        25  POP19       0.0593
  2516 HY           3.2680   -11.2620    20.4410 H        25  POP19       0.0593
  2517 O31          3.5840   -12.3360    18.8050 O.3      25  POP19      -0.3125
  2518 C31          4.4190   -13.2020    18.1210 C.2      25  POP19       0.2622
  2519 O32          5.2140   -13.8970    18.7500 O.2      25  POP19      -0.2650
  2520 C32          4.1990   -13.1560    16.5890 C.3      25  POP19       0.0332
  2521 H2X          3.1650   -12.9470    16.4440 H        25  POP19       0.0366
  2522 H2Y          4.2480   -14.1550    16.2800 H        25  POP19       0.0366
  2523 C23          1.9950   -17.1140    18.3930 C.3      25  POP19      -0.0441
  2524 H3R          0.9280   -17.3540    18.6280 H        25  POP19       0.0270
  2525 H3S          2.3640   -18.0110    18.0130 H        25  POP19       0.0270
  2526 C24          2.0200   -16.0100    17.2870 C.3      25  POP19      -0.0526
  2527 H4R          3.1040   -15.8560    17.0760 H        25  POP19       0.0265
  2528 H4S          1.6360   -14.9910    17.7510 H        25  POP19       0.0265
  2529 C25          1.2990   -16.2860    15.9460 C.3      25  POP19      -0.0530
  2530 H5R          0.2370   -16.5000    16.3420 H        25  POP19       0.0265
  2531 H5S          1.7650   -17.1550    15.4030 H        25  POP19       0.0265
  2532 C26          1.3530   -15.0830    15.0150 C.3      25  POP19      -0.0528
  2533 H6R          2.4070   -14.7750    14.7450 H        25  POP19       0.0265
  2534 H6S          0.7980   -14.2250    15.3990 H        25  POP19       0.0265
  2535 C27          0.7660   -15.4300    13.6990 C.3      25  POP19      -0.0496
  2536 H7R         -0.2520   -15.7590    13.8950 H        25  POP19       0.0268
  2537 H7S          1.2360   -16.3810    13.3330 H        25  POP19       0.0268
  2538 C28          0.7830   -14.3810    12.6030 C.3      25  POP19      -0.0348
  2539 H8R          1.8510   -14.0590    12.3710 H        25  POP19       0.0307
  2540 H8S          0.1260   -13.4640    12.7020 H        25  POP19       0.0307
  2541 C29          0.1530   -15.1060    11.4370 C.2      25  POP19      -0.0879
  2542 H91         -0.8650   -15.4770    11.6500 H        25  POP19       0.0569
  2543 C210         0.6520   -15.3020    10.2660 C.2      25  POP19      -0.0879
  2544 H101         0.1230   -15.9710     9.5180 H        25  POP19       0.0569
  2545 C211         2.0040   -14.7960     9.7940 C.3      25  POP19      -0.0348
  2546 H11R         2.6230   -15.6380     9.4170 H        25  POP19       0.0307
  2547 H11S         2.6400   -14.3760    10.6060 H        25  POP19       0.0307
  2548 C212         1.9570   -13.6960     8.7420 C.3      25  POP19      -0.0496
  2549 H12R         2.9310   -13.1400     8.8230 H        25  POP19       0.0268
  2550 H12S         1.0760   -13.0840     8.9550 H        25  POP19       0.0268
  2551 C213         1.7260   -14.1430     7.2510 C.3      25  POP19      -0.0528
  2552 H13R         1.0820   -13.3420     6.7460 H        25  POP19       0.0265
  2553 H13S         1.0420   -15.0190     7.2430 H        25  POP19       0.0265
  2554 C214         2.9690   -14.3510     6.3710 C.3      25  POP19      -0.0530
  2555 H14R         2.6740   -15.0560     5.5240 H        25  POP19       0.0265
  2556 H14S         3.7450   -14.9860     6.8130 H        25  POP19       0.0265
  2557 C215         3.5210   -12.9870     5.9590 C.3      25  POP19      -0.0531
  2558 H15R         4.6050   -13.0190     5.8110 H        25  POP19       0.0265
  2559 H15S         3.4480   -12.2980     6.8430 H        25  POP19       0.0265
  2560 C216         2.8300   -12.4620     4.7130 C.3      25  POP19      -0.0533
  2561 H16R         2.9360   -11.3500     4.7500 H        25  POP19       0.0265
  2562 H16S         1.7640   -12.6920     4.8190 H        25  POP19       0.0265
  2563 C217         3.4510   -12.7440     3.3370 C.3      25  POP19      -0.0559
  2564 H17R         3.4980   -13.7940     3.3540 H        25  POP19       0.0263
  2565 H17S         4.4500   -12.2780     3.2530 H        25  POP19       0.0263
  2566 C218         2.6080   -12.2430     2.2410 C.3      25  POP19      -0.0653
  2567 H18R         1.6840   -12.8560     2.1050 H        25  POP19       0.0230
  2568 H18S         3.1100   -12.3210     1.1730 H        25  POP19       0.0230
  2569 H18T         2.3750   -11.1700     2.4260 H        25  POP19       0.0230
  2570 C33          5.1120   -12.2210    15.7710 C.3      25  POP19      -0.0441
  2571 H3X          6.1720   -12.3630    16.1530 H        25  POP19       0.0270
  2572 H3Y          4.8020   -11.1760    15.9740 H        25  POP19       0.0270
  2573 C34          5.0150   -12.5840    14.2180 C.3      25  POP19      -0.0526
  2574 H4X          5.5880   -11.7790    13.6830 H        25  POP19       0.0265
  2575 H4Y          3.9960   -12.6360    13.8950 H        25  POP19       0.0265
  2576 C35          5.7630   -13.9000    13.8810 C.3      25  POP19      -0.0530
  2577 H5X          5.1540   -14.8090    14.1820 H        25  POP19       0.0265
  2578 H5Y          6.7470   -13.9740    14.3590 H        25  POP19       0.0265
  2579 C36          6.0160   -14.0550    12.3690 C.3      25  POP19      -0.0531
  2580 H6X          6.5270   -13.1780    11.9370 H        25  POP19       0.0265
  2581 H6Y          4.9980   -14.1340    11.9110 H        25  POP19       0.0265
  2582 C37          6.7090   -15.3680    11.8790 C.3      25  POP19      -0.0531
  2583 H7X          6.3380   -16.2820    12.4840 H        25  POP19       0.0265
  2584 H7Y          7.6910   -15.1650    12.2910 H        25  POP19       0.0265
  2585 C38          6.7030   -15.6880    10.3250 C.3      25  POP19      -0.0531
  2586 H8X          7.7320   -15.9500    10.0290 H        25  POP19       0.0265
  2587 H8Y          6.4450   -14.7400     9.7380 H        25  POP19       0.0265
  2588 C39          5.8370   -16.8630     9.8890 C.3      25  POP19      -0.0531
  2589 H9X          4.7870   -16.8000    10.1550 H        25  POP19       0.0265
  2590 H9Y          6.1420   -17.7660    10.5050 H        25  POP19       0.0265
  2591 C310         5.9380   -17.2680     8.4270 C.3      25  POP19      -0.0531
  2592 H10X         7.0240   -17.2550     8.1710 H        25  POP19       0.0265
  2593 H10Y         5.5410   -16.4930     7.7100 H        25  POP19       0.0265
  2594 C311         5.1980   -18.5920     8.0900 C.3      25  POP19      -0.0531
  2595 H11X         4.1100   -18.3030     8.1650 H        25  POP19       0.0265
  2596 H11Y         5.5350   -19.2360     8.9340 H        25  POP19       0.0265
  2597 C312         5.5120   -19.1350     6.7500 C.3      25  POP19      -0.0531
  2598 H12X         6.5180   -19.4540     6.7150 H        25  POP19       0.0265
  2599 H12Y         5.3460   -18.2660     6.0150 H        25  POP19       0.0265
  2600 C313         4.6590   -20.3180     6.3350 C.3      25  POP19      -0.0531
  2601 H13X         3.6920   -19.9710     6.0270 H        25  POP19       0.0265
  2602 H13Y         4.5280   -20.9170     7.1840 H        25  POP19       0.0265
  2603 C314         5.3180   -21.1800     5.2180 C.3      25  POP19      -0.0533
  2604 H14X         4.7560   -22.1510     5.0190 H        25  POP19       0.0265
  2605 H14Y         6.2610   -21.5970     5.5490 H        25  POP19       0.0265
  2606 C315         5.2950   -20.3980     3.8140 C.3      25  POP19      -0.0559
  2607 H15X         5.7220   -19.3910     4.0440 H        25  POP19       0.0263
  2608 H15Y         4.2470   -20.3300     3.4360 H        25  POP19       0.0263
  2609 C316         6.1550   -21.0350     2.7020 C.3      25  POP19      -0.0653
  2610 H16X         6.0010   -22.1190     2.7830 H        25  POP19       0.0230
  2611 H16Y         7.1540   -20.8130     3.0670 H        25  POP19       0.0230
  2612 H16Z         6.0790   -20.5710     1.7020 H        25  POP19       0.0230
  2613 N           -6.9900   -28.9980    16.4560 N.3      26  POP20       0.2385
  2614 C12         -7.6100   -29.6250    17.7750 C.3      26  POP20      -0.0064
  2615 H12A        -8.5240   -29.0840    17.9980 H        26  POP20       0.0838
  2616 H12B        -6.8880   -29.3740    18.5230 H        26  POP20       0.0838
  2617 C13         -8.0360   -28.9370    15.4240 C.3      26  POP20      -0.0417
  2618 H13A        -8.8610   -28.5440    15.7760 H        26  POP20       0.0778
  2619 H13B        -7.8110   -28.4340    14.5600 H        26  POP20       0.0778
  2620 H13C        -8.2750   -29.9760    15.0880 H        26  POP20       0.0778
  2621 C14         -6.6870   -27.5660    16.7540 C.3      26  POP20      -0.0417
  2622 H14A        -7.4920   -27.0060    17.1390 H        26  POP20       0.0778
  2623 H14B        -5.8010   -27.4970    17.3770 H        26  POP20       0.0778
  2624 H14C        -6.4090   -27.0730    15.8040 H        26  POP20       0.0778
  2625 C15         -5.8180   -29.7380    15.9160 C.3      26  POP20      -0.0417
  2626 H15A        -6.1210   -30.7240    15.5470 H        26  POP20       0.0778
  2627 H15B        -5.0710   -29.8400    16.7490 H        26  POP20       0.0778
  2628 H15C        -5.3200   -29.2790    15.0970 H        26  POP20       0.0778
  2629 C11         -7.8580   -31.1990    17.7710 C.3      26  POP20       0.0954
  2630 H11A        -8.0790   -31.5600    18.8390 H        26  POP20       0.0618
  2631 H11B        -7.0330   -31.6910    17.4100 H        26  POP20       0.0618
  2632 P          -10.3450   -31.6280    17.2830 P.3      26  POP20       0.2645
  2633 O13        -10.6160   -30.5340    18.2330 O.co2    26  POP20      -0.5105
  2634 O14        -10.5040   -32.9700    17.8030 O.co2    26  POP20      -0.5105
  2635 O12         -8.8480   -31.5420    16.8020 O.3      26  POP20      -0.3154
  2636 O11        -11.1810   -31.4030    16.0110 O.3      26  POP20      -0.3181
  2637 C1         -10.7880   -31.6800    14.7050 C.3      26  POP20       0.0845
  2638 HA         -10.1280   -32.6100    14.6750 H        26  POP20       0.0591
  2639 HB         -10.1760   -30.8290    14.2700 H        26  POP20       0.0591
  2640 C2         -11.9830   -31.9230    13.7950 C.3      26  POP20       0.1155
  2641 HS         -11.5550   -32.3130    12.8530 H        26  POP20       0.0649
  2642 O21        -12.5700   -30.6360    13.4350 O.3      26  POP20      -0.3072
  2643 C21        -13.1020   -30.5150    12.3140 C.2      26  POP20       0.2626
  2644 O22        -13.3670   -31.3870    11.5100 O.2      26  POP20      -0.2650
  2645 C22        -13.4680   -28.9760    12.1830 C.3      26  POP20       0.0332
  2646 H2R        -12.5910   -28.4790    12.5500 H        26  POP20       0.0366
  2647 H2S        -14.2310   -28.8140    12.9540 H        26  POP20       0.0366
  2648 C3         -13.0720   -32.9150    14.4500 C.3      26  POP20       0.0860
  2649 HX         -13.5230   -32.6670    15.3910 H        26  POP20       0.0593
  2650 HY         -12.5140   -33.8640    14.6300 H        26  POP20       0.0593
  2651 O31        -14.0970   -33.2200    13.5360 O.3      26  POP20      -0.3125
  2652 C31        -13.7980   -34.0420    12.5410 C.2      26  POP20       0.2622
  2653 O32        -12.6910   -34.4530    12.2510 O.2      26  POP20      -0.2650
  2654 C32        -15.0750   -34.3880    11.6680 C.3      26  POP20       0.0332
  2655 H2X        -15.2010   -33.6040    10.9140 H        26  POP20       0.0366
  2656 H2Y        -15.9440   -34.3660    12.3270 H        26  POP20       0.0366
  2657 C23        -13.9950   -28.5930    10.7680 C.3      26  POP20      -0.0441
  2658 H3R        -13.3690   -29.0440     9.9780 H        26  POP20       0.0270
  2659 H3S        -13.8860   -27.4830    10.7100 H        26  POP20       0.0270
  2660 C24        -15.4680   -28.8890    10.4800 C.3      26  POP20      -0.0526
  2661 H4R        -16.0350   -28.1140    11.0750 H        26  POP20       0.0265
  2662 H4S        -15.6950   -29.8510    10.9080 H        26  POP20       0.0265
  2663 C25        -15.8470   -28.8960     8.9600 C.3      26  POP20      -0.0530
  2664 H5R        -15.4070   -27.9940     8.4440 H        26  POP20       0.0265
  2665 H5S        -16.9470   -28.8620     8.8320 H        26  POP20       0.0265
  2666 C26        -15.2790   -30.0140     8.1600 C.3      26  POP20      -0.0528
  2667 H6R        -15.3980   -30.9250     8.7890 H        26  POP20       0.0265
  2668 H6S        -14.1030   -29.8100     8.0110 H        26  POP20       0.0265
  2669 C27        -15.9700   -30.0560     6.7880 C.3      26  POP20      -0.0496
  2670 H7R        -15.6640   -29.0820     6.4110 H        26  POP20       0.0268
  2671 H7S        -17.0360   -30.2720     6.8500 H        26  POP20       0.0268
  2672 C28        -15.3120   -31.1360     5.8990 C.3      26  POP20      -0.0348
  2673 H8R        -15.3080   -32.0850     6.4580 H        26  POP20       0.0307
  2674 H8S        -14.2390   -30.8610     5.8530 H        26  POP20       0.0307
  2675 C29        -16.0180   -31.2390     4.5790 C.2      26  POP20      -0.0879
  2676 H91        -17.0850   -31.3960     4.6190 H        26  POP20       0.0569
  2677 C210       -15.3910   -31.1820     3.4330 C.2      26  POP20      -0.0879
  2678 H101       -16.0430   -31.1520     2.6110 H        26  POP20       0.0569
  2679 C211       -13.9230   -30.9300     3.1870 C.3      26  POP20      -0.0348
  2680 H11R       -13.4580   -30.1880     3.8670 H        26  POP20       0.0307
  2681 H11S       -13.6610   -30.5030     2.1630 H        26  POP20       0.0307
  2682 C212       -13.0110   -32.0840     3.4950 C.3      26  POP20      -0.0496
  2683 H12R       -13.4160   -32.9190     2.9150 H        26  POP20       0.0268
  2684 H12S       -13.0800   -32.3880     4.5300 H        26  POP20       0.0268
  2685 C213       -11.4810   -31.8140     3.2050 C.3      26  POP20      -0.0528
  2686 H13R       -11.4710   -30.7100     3.4650 H        26  POP20       0.0265
  2687 H13S       -11.3130   -31.8130     2.2270 H        26  POP20       0.0265
  2688 C214       -10.6370   -32.8080     4.0600 C.3      26  POP20      -0.0530
  2689 H14R       -10.5470   -33.7020     3.3820 H        26  POP20       0.0265
  2690 H14S       -11.0140   -33.1390     5.0480 H        26  POP20       0.0265
  2691 C215        -9.1950   -32.2910     4.4860 C.3      26  POP20      -0.0531
  2692 H15R        -9.3220   -31.3590     5.0410 H        26  POP20       0.0265
  2693 H15S        -8.5620   -32.1530     3.6360 H        26  POP20       0.0265
  2694 C216        -8.4030   -33.2340     5.3430 C.3      26  POP20      -0.0533
  2695 H16R        -8.2820   -34.2950     4.8880 H        26  POP20       0.0265
  2696 H16S        -8.9490   -33.2650     6.3210 H        26  POP20       0.0265
  2697 C217        -6.9730   -32.7870     5.7410 C.3      26  POP20      -0.0559
  2698 H17R        -7.0630   -31.7390     6.1790 H        26  POP20       0.0263
  2699 H17S        -6.3880   -32.7330     4.7890 H        26  POP20       0.0263
  2700 C218        -6.2310   -33.6520     6.8720 C.3      26  POP20      -0.0653
  2701 H18R        -6.6500   -34.7530     6.7230 H        26  POP20       0.0230
  2702 H18S        -6.4840   -33.2440     7.8730 H        26  POP20       0.0230
  2703 H18T        -5.1540   -33.5330     6.7890 H        26  POP20       0.0230
  2704 C33        -15.0200   -35.7960    11.1210 C.3      26  POP20      -0.0441
  2705 H3X        -14.7430   -36.4770    11.9390 H        26  POP20       0.0270
  2706 H3Y        -14.1220   -35.6900    10.4330 H        26  POP20       0.0270
  2707 C34        -16.1480   -36.1100    10.2390 C.3      26  POP20      -0.0526
  2708 H4X        -16.3860   -35.2450     9.6010 H        26  POP20       0.0265
  2709 H4Y        -17.1090   -36.3490    10.7820 H        26  POP20       0.0265
  2710 C35        -15.8330   -37.3780     9.4490 C.3      26  POP20      -0.0530
  2711 H5X        -15.6500   -38.2010    10.1970 H        26  POP20       0.0265
  2712 H5Y        -14.9380   -37.1450     8.8660 H        26  POP20       0.0265
  2713 C36        -16.9280   -37.7330     8.4780 C.3      26  POP20      -0.0531
  2714 H6X        -17.8720   -37.8280     9.0700 H        26  POP20       0.0265
  2715 H6Y        -16.6630   -38.7160     7.9860 H        26  POP20       0.0265
  2716 C37        -17.0550   -36.6280     7.4330 C.3      26  POP20      -0.0531
  2717 H7X        -16.0940   -36.2380     7.1280 H        26  POP20       0.0265
  2718 H7Y        -17.5720   -35.7540     7.8530 H        26  POP20       0.0265
  2719 C38        -17.9090   -37.1640     6.2930 C.3      26  POP20      -0.0531
  2720 H8X        -18.8010   -37.4940     6.8760 H        26  POP20       0.0265
  2721 H8Y        -17.3590   -37.9330     5.8760 H        26  POP20       0.0265
  2722 C39        -18.3890   -36.1310     5.2900 C.3      26  POP20      -0.0531
  2723 H9X        -17.5770   -35.8180     4.6650 H        26  POP20       0.0265
  2724 H9Y        -18.9180   -35.2280     5.5590 H        26  POP20       0.0265
  2725 C310       -19.2010   -36.5930     4.0550 C.3      26  POP20      -0.0531
  2726 H10X       -20.1870   -36.8860     4.5890 H        26  POP20       0.0265
  2727 H10Y       -18.8470   -37.5440     3.6570 H        26  POP20       0.0265
  2728 C311       -19.4330   -35.4570     3.0800 C.3      26  POP20      -0.0531
  2729 H11X       -18.5180   -34.9330     2.8750 H        26  POP20       0.0265
  2730 H11Y       -20.1350   -34.7510     3.5120 H        26  POP20       0.0265
  2731 C312       -19.8580   -36.1180     1.7240 C.3      26  POP20      -0.0531
  2732 H12X       -20.9100   -36.2500     1.8380 H        26  POP20       0.0265
  2733 H12Y       -19.3700   -37.0930     1.6070 H        26  POP20       0.0265
  2734 C313       -19.5910   -35.2460     0.4760 C.3      26  POP20      -0.0531
  2735 H13X       -18.4390   -35.2590     0.2750 H        26  POP20       0.0265
  2736 H13Y       -20.0870   -34.2650     0.7080 H        26  POP20       0.0265
  2737 C314       -20.2530   -35.9010    -0.6740 C.3      26  POP20      -0.0533
  2738 H14X       -21.4080   -35.8720    -0.6430 H        26  POP20       0.0265
  2739 H14Y       -19.9920   -37.0070    -0.8050 H        26  POP20       0.0265
  2740 C315       -19.9210   -35.2890    -2.1040 C.3      26  POP20      -0.0559
  2741 H15X       -20.3320   -35.9490    -2.8820 H        26  POP20       0.0263
  2742 H15Y       -18.7900   -35.2350    -2.1700 H        26  POP20       0.0263
  2743 C316       -20.4640   -33.8980    -2.4470 C.3      26  POP20      -0.0653
  2744 H16X       -21.6070   -33.9410    -2.4800 H        26  POP20       0.0230
  2745 H16Y       -20.0670   -33.4740    -3.3390 H        26  POP20       0.0230
  2746 H16Z       -20.2210   -33.1670    -1.6730 H        26  POP20       0.0230
  2747 N           19.3220    18.3970    27.3010 N.3      27  POP21       0.2385
  2748 C12         20.3290    19.0420    26.4200 C.3      27  POP21      -0.0064
  2749 H12A        19.9180    18.9030    25.4090 H        27  POP21       0.0838
  2750 H12B        21.2730    18.4570    26.4370 H        27  POP21       0.0838
  2751 C13         17.9150    18.8720    27.0140 C.3      27  POP21      -0.0417
  2752 H13A        17.7170    18.8930    25.9190 H        27  POP21       0.0778
  2753 H13B        17.2370    18.3170    27.5370 H        27  POP21       0.0778
  2754 H13C        17.8550    20.0240    27.2520 H        27  POP21       0.0778
  2755 C14         19.3190    16.9400    27.0790 C.3      27  POP21      -0.0417
  2756 H14A        18.5100    16.5000    27.6750 H        27  POP21       0.0778
  2757 H14B        18.9320    16.7590    26.0320 H        27  POP21       0.0778
  2758 H14C        20.2720    16.4970    27.1220 H        27  POP21       0.0778
  2759 C15         19.5660    18.5380    28.7720 C.3      27  POP21      -0.0417
  2760 H15A        20.3040    17.7900    29.0410 H        27  POP21       0.0778
  2761 H15B        18.6500    18.2360    29.2710 H        27  POP21       0.0778
  2762 H15C        19.8060    19.4740    29.2010 H        27  POP21       0.0778
  2763 C11         20.6520    20.5240    26.5820 C.3      27  POP21       0.0954
  2764 H11A        21.4630    20.7740    25.8150 H        27  POP21       0.0618
  2765 H11B        21.1250    20.5120    27.5730 H        27  POP21       0.0618
  2766 P           18.8460    21.9110    25.1440 P.3      27  POP21       0.2645
  2767 O13         19.6510    23.0870    24.7330 O.co2    27  POP21      -0.5105
  2768 O14         17.3740    22.1430    25.4030 O.co2    27  POP21      -0.5105
  2769 O12         19.4140    21.3150    26.4240 O.3      27  POP21      -0.3154
  2770 O11         18.9670    20.6980    24.0580 O.3      27  POP21      -0.3181
  2771 C1          19.7010    20.8990    22.8480 C.3      27  POP21       0.0845
  2772 HA          20.0010    19.9760    22.3910 H        27  POP21       0.0591
  2773 HB          20.6270    21.3160    23.1320 H        27  POP21       0.0591
  2774 C2          19.0060    21.7380    21.7000 C.3      27  POP21       0.1155
  2775 HS          18.9560    22.6990    22.2590 H        27  POP21       0.0649
  2776 O21         17.7050    21.1400    21.5520 O.3      27  POP21      -0.3072
  2777 C21         16.7950    21.9670    21.1320 C.2      27  POP21       0.2626
  2778 O22         16.9410    23.1700    20.9460 O.2      27  POP21      -0.2650
  2779 C22         15.5450    21.0890    20.8350 C.3      27  POP21       0.0332
  2780 H2R         15.0030    21.2030    21.7660 H        27  POP21       0.0366
  2781 H2S         15.9570    20.0630    20.6960 H        27  POP21       0.0366
  2782 C3          19.6780    21.8340    20.3220 C.3      27  POP21       0.0860
  2783 HX          19.7390    20.8120    19.8550 H        27  POP21       0.0593
  2784 HY          20.7500    22.0440    20.5650 H        27  POP21       0.0593
  2785 O31         19.1730    22.8060    19.4410 O.3      27  POP21      -0.3125
  2786 C31         18.4540    22.4710    18.4470 C.2      27  POP21       0.2622
  2787 O32         18.2540    21.3380    18.2070 O.2      27  POP21      -0.2650
  2788 C32         18.1890    23.6270    17.5000 C.3      27  POP21       0.0332
  2789 H2X         18.8120    24.4970    17.7760 H        27  POP21       0.0366
  2790 H2Y         17.1120    23.9020    17.5730 H        27  POP21       0.0366
  2791 C23         14.7470    21.4810    19.5640 C.3      27  POP21      -0.0441
  2792 H3R         15.4490    21.6380    18.6650 H        27  POP21       0.0270
  2793 H3S         14.3010    22.5100    19.8280 H        27  POP21       0.0270
  2794 C24         13.6970    20.5480    19.0860 C.3      27  POP21      -0.0526
  2795 H4R         13.0650    21.1200    18.3540 H        27  POP21       0.0265
  2796 H4S         13.0520    20.2050    19.9040 H        27  POP21       0.0265
  2797 C25         14.1800    19.1930    18.4860 C.3      27  POP21      -0.0530
  2798 H5R         13.1620    18.7420    18.1690 H        27  POP21       0.0265
  2799 H5S         14.5710    18.6330    19.3560 H        27  POP21       0.0265
  2800 C26         15.0490    19.3690    17.1950 C.3      27  POP21      -0.0528
  2801 H6R         15.9570    19.9020    17.6230 H        27  POP21       0.0265
  2802 H6S         14.6610    20.0980    16.4120 H        27  POP21       0.0265
  2803 C27         15.4740    17.9470    16.6190 C.3      27  POP21      -0.0496
  2804 H7R         15.6010    17.2570    17.4330 H        27  POP21       0.0268
  2805 H7S         16.4800    18.1550    16.1660 H        27  POP21       0.0268
  2806 C28         14.4740    17.4190    15.5830 C.3      27  POP21      -0.0348
  2807 H8R         14.4630    18.0050    14.7030 H        27  POP21       0.0307
  2808 H8S         13.4920    17.4450    15.9990 H        27  POP21       0.0307
  2809 C29         14.7760    15.9930    15.1990 C.2      27  POP21      -0.0879
  2810 H91         14.3540    15.2210    15.8430 H        27  POP21       0.0569
  2811 C210        15.5270    15.5640    14.1620 C.2      27  POP21      -0.0879
  2812 H101        15.7400    14.4370    14.0910 H        27  POP21       0.0569
  2813 C211        16.2150    16.4900    13.1700 C.3      27  POP21      -0.0348
  2814 H11R        17.2790    16.6310    13.5560 H        27  POP21       0.0307
  2815 H11S        15.7110    17.4770    13.1690 H        27  POP21       0.0307
  2816 C212        16.2410    15.7660    11.7380 C.3      27  POP21      -0.0496
  2817 H12R        15.2010    15.5540    11.2970 H        27  POP21       0.0268
  2818 H12S        16.7520    14.7920    11.8100 H        27  POP21       0.0268
  2819 C213        17.0270    16.6500    10.6920 C.3      27  POP21      -0.0528
  2820 H13R        18.0810    16.8870    10.9290 H        27  POP21       0.0265
  2821 H13S        16.4890    17.6170    10.6630 H        27  POP21       0.0265
  2822 C214        17.0900    16.0650     9.2700 C.3      27  POP21      -0.0530
  2823 H14R        16.1400    15.8660     8.8480 H        27  POP21       0.0265
  2824 H14S        17.6210    15.1090     9.2750 H        27  POP21       0.0265
  2825 C215        17.9100    16.9450     8.3630 C.3      27  POP21      -0.0531
  2826 H15R        18.8080    17.3110     8.7340 H        27  POP21       0.0265
  2827 H15S        17.2800    17.8480     8.0660 H        27  POP21       0.0265
  2828 C216        18.3630    16.1230     7.1550 C.3      27  POP21      -0.0533
  2829 H16R        17.3940    15.7550     6.6770 H        27  POP21       0.0265
  2830 H16S        19.0400    15.2970     7.4440 H        27  POP21       0.0265
  2831 C217        19.2550    16.8880     6.1900 C.3      27  POP21      -0.0559
  2832 H17R        19.9140    17.4850     6.7640 H        27  POP21       0.0263
  2833 H17S        18.6070    17.6660     5.6660 H        27  POP21       0.0263
  2834 C218        19.9090    16.0220     5.0980 C.3      27  POP21      -0.0653
  2835 H18R        20.3990    16.7380     4.3540 H        27  POP21       0.0230
  2836 H18S        19.1350    15.5470     4.5970 H        27  POP21       0.0230
  2837 H18T        20.6070    15.2800     5.5630 H        27  POP21       0.0230
  2838 C33         18.5280    23.3130    16.0060 C.3      27  POP21      -0.0441
  2839 H3X         19.6410    23.0790    15.9920 H        27  POP21       0.0270
  2840 H3Y         18.5400    24.2460    15.3990 H        27  POP21       0.0270
  2841 C34         17.5840    22.2950    15.4000 C.3      27  POP21      -0.0526
  2842 H4X         16.5590    22.6660    15.5560 H        27  POP21       0.0265
  2843 H4Y         17.6670    21.4140    16.1050 H        27  POP21       0.0265
  2844 C35         17.7520    21.9160    13.9090 C.3      27  POP21      -0.0530
  2845 H5X         18.7170    21.4270    13.8310 H        27  POP21       0.0265
  2846 H5Y         17.9060    22.8010    13.2370 H        27  POP21       0.0265
  2847 C36         16.6400    21.0130    13.4680 C.3      27  POP21      -0.0531
  2848 H6X         15.6480    21.5180    13.2520 H        27  POP21       0.0265
  2849 H6Y         16.4140    20.1880    14.2780 H        27  POP21       0.0265
  2850 C37         16.9710    20.2640    12.2150 C.3      27  POP21      -0.0531
  2851 H7X         16.1360    19.6270    11.8880 H        27  POP21       0.0265
  2852 H7Y         17.9050    19.6400    12.3010 H        27  POP21       0.0265
  2853 C38         17.4390    21.1800    11.0150 C.3      27  POP21      -0.0531
  2854 H8X         18.3380    21.7160    11.3810 H        27  POP21       0.0265
  2855 H8Y         16.6280    21.9330    10.6600 H        27  POP21       0.0265
  2856 C39         17.8970    20.3480     9.7900 C.3      27  POP21      -0.0531
  2857 H9X         17.0220    19.8140     9.3160 H        27  POP21       0.0265
  2858 H9Y         18.6780    19.7260    10.1520 H        27  POP21       0.0265
  2859 C310        18.5710    21.2440     8.7150 C.3      27  POP21      -0.0531
  2860 H10X        19.4820    21.6580     9.1170 H        27  POP21       0.0265
  2861 H10Y        17.9360    22.0740     8.4610 H        27  POP21       0.0265
  2862 C311        18.8390    20.5020     7.4070 C.3      27  POP21      -0.0531
  2863 H11X        17.9300    19.9050     7.0460 H        27  POP21       0.0265
  2864 H11Y        19.5790    19.7390     7.6750 H        27  POP21       0.0265
  2865 C312        19.4120    21.2180     6.1760 C.3      27  POP21      -0.0531
  2866 H12X        20.3790    21.6540     6.4220 H        27  POP21       0.0265
  2867 H12Y        18.8010    22.0050     5.8240 H        27  POP21       0.0265
  2868 C313        19.5300    20.3210     4.9330 C.3      27  POP21      -0.0531
  2869 H13X        18.6370    19.7200     4.8660 H        27  POP21       0.0265
  2870 H13Y        20.3610    19.6180     4.7970 H        27  POP21       0.0265
  2871 C314        19.4790    21.1870     3.6010 C.3      27  POP21      -0.0533
  2872 H14X        20.2710    21.9140     3.6520 H        27  POP21       0.0265
  2873 H14Y        18.5300    21.6790     3.5210 H        27  POP21       0.0265
  2874 C315        19.7210    20.3440     2.2930 C.3      27  POP21      -0.0559
  2875 H15X        19.0120    19.5190     2.2640 H        27  POP21       0.0263
  2876 H15Y        20.7900    19.9370     2.4430 H        27  POP21       0.0263
  2877 C316        19.6170    21.1020     0.9810 C.3      27  POP21      -0.0653
  2878 H16X        20.1420    22.0650     1.1610 H        27  POP21       0.0230
  2879 H16Y        18.6010    21.3350     0.6990 H        27  POP21       0.0230
  2880 H16Z        20.0960    20.5120     0.1580 H        27  POP21       0.0230
  2881 N           -8.1980   -16.6950    26.6080 N.3      28  POP22       0.2385
  2882 C12         -6.7090   -16.4730    26.2630 C.3      28  POP22      -0.0064
  2883 H12A        -6.5820   -17.1070    25.3560 H        28  POP22       0.0838
  2884 H12B        -6.1350   -17.0280    27.0540 H        28  POP22       0.0838
  2885 C13         -9.0190   -16.1230    25.4620 C.3      28  POP22      -0.0417
  2886 H13A       -10.0490   -15.9580    25.7000 H        28  POP22       0.0778
  2887 H13B        -8.6180   -15.2200    25.1080 H        28  POP22       0.0778
  2888 H13C        -8.9400   -16.7920    24.5980 H        28  POP22       0.0778
  2889 C14         -8.5650   -18.1700    26.6360 C.3      28  POP22      -0.0417
  2890 H14A        -8.2900   -18.5880    25.6460 H        28  POP22       0.0778
  2891 H14B        -7.8170   -18.6730    27.2440 H        28  POP22       0.0778
  2892 H14C        -9.5620   -18.3960    26.9430 H        28  POP22       0.0778
  2893 C15         -8.4080   -16.0670    27.9420 C.3      28  POP22      -0.0417
  2894 H15A        -8.1750   -14.9860    27.9940 H        28  POP22       0.0778
  2895 H15B        -7.7640   -16.5370    28.7390 H        28  POP22       0.0778
  2896 H15C        -9.5060   -16.0600    28.2710 H        28  POP22       0.0778
  2897 C11         -6.1670   -15.0620    25.9790 C.3      28  POP22       0.0954
  2898 H11A        -5.0860   -14.9950    26.3290 H        28  POP22       0.0618
  2899 H11B        -6.6060   -14.2600    26.6080 H        28  POP22       0.0618
  2900 P           -5.3090   -15.4150    23.5190 P.3      28  POP22       0.2645
  2901 O13         -5.3270   -16.8770    23.7520 O.co2    28  POP22      -0.5105
  2902 O14         -3.9750   -14.6950    23.6220 O.co2    28  POP22      -0.5105
  2903 O12         -6.2900   -14.7990    24.6100 O.3      28  POP22      -0.3154
  2904 O11         -5.9150   -15.1210    22.0990 O.3      28  POP22      -0.3181
  2905 C1          -6.9270   -14.0780    22.0630 C.3      28  POP22       0.0845
  2906 HA          -6.5160   -13.1710    22.5360 H        28  POP22       0.0591
  2907 HB          -7.9360   -14.3060    22.5110 H        28  POP22       0.0591
  2908 C2          -7.1690   -13.7180    20.6160 C.3      28  POP22       0.1155
  2909 HS          -7.8140   -12.8080    20.5740 H        28  POP22       0.0649
  2910 O21         -7.6850   -14.8620    19.8400 O.3      28  POP22      -0.3072
  2911 C21         -8.9910   -14.9560    19.8410 C.2      28  POP22       0.2626
  2912 O22         -9.7530   -14.1830    20.4500 O.2      28  POP22      -0.2650
  2913 C22         -9.4320   -16.0670    18.9850 C.3      28  POP22       0.0332
  2914 H2R        -10.1030   -16.6740    19.5700 H        28  POP22       0.0366
  2915 H2S         -8.6160   -16.7830    18.7220 H        28  POP22       0.0366
  2916 C3          -5.8200   -13.3250    19.9330 C.3      28  POP22       0.0860
  2917 HX          -5.0780   -14.2090    20.0540 H        28  POP22       0.0593
  2918 HY          -5.4100   -12.4570    20.4440 H        28  POP22       0.0593
  2919 O31         -6.0240   -12.9390    18.5750 O.3      28  POP22      -0.3125
  2920 C31         -6.6100   -11.8950    18.2310 C.2      28  POP22       0.2622
  2921 O32         -7.1860   -11.0830    18.9460 O.2      28  POP22      -0.2650
  2922 C32         -6.8020   -11.9000    16.6500 C.3      28  POP22       0.0332
  2923 H2X         -7.9160   -11.9990    16.6210 H        28  POP22       0.0366
  2924 H2Y         -6.1570   -12.6740    16.1820 H        28  POP22       0.0366
  2925 C23        -10.1100   -15.5460    17.6530 C.3      28  POP22      -0.0441
  2926 H3R        -10.8480   -14.8490    17.9260 H        28  POP22       0.0270
  2927 H3S        -10.5730   -16.4140    17.1130 H        28  POP22       0.0270
  2928 C24         -9.1360   -14.9410    16.6110 C.3      28  POP22      -0.0526
  2929 H4R         -8.4340   -15.7580    16.3120 H        28  POP22       0.0265
  2930 H4S         -8.4930   -14.1290    17.0310 H        28  POP22       0.0265
  2931 C25         -9.7460   -14.5260    15.2290 C.3      28  POP22      -0.0530
  2932 H5R        -10.2880   -13.5230    15.3200 H        28  POP22       0.0265
  2933 H5S        -10.4270   -15.2370    14.7750 H        28  POP22       0.0265
  2934 C26         -8.6600   -14.3410    14.1420 C.3      28  POP22      -0.0528
  2935 H6R         -8.5030   -15.3330    13.7180 H        28  POP22       0.0265
  2936 H6S         -7.7270   -13.8920    14.5890 H        28  POP22       0.0265
  2937 C27         -8.9750   -13.3360    12.9960 C.3      28  POP22      -0.0496
  2938 H7R         -8.2940   -13.4550    12.1750 H        28  POP22       0.0268
  2939 H7S         -8.8860   -12.2520    13.4870 H        28  POP22       0.0268
  2940 C28        -10.4390   -13.3780    12.3860 C.3      28  POP22      -0.0348
  2941 H8R        -11.3100   -13.4060    13.1180 H        28  POP22       0.0307
  2942 H8S        -10.3980   -14.3550    11.7880 H        28  POP22       0.0307
  2943 C29        -10.6850   -12.1930    11.4440 C.2      28  POP22      -0.0879
  2944 H91        -10.6990   -11.1360    11.7870 H        28  POP22       0.0569
  2945 C210       -10.5610   -12.2610    10.1070 C.2      28  POP22      -0.0879
  2946 H101       -10.6530   -11.3100     9.5680 H        28  POP22       0.0569
  2947 C211       -10.1780   -13.4090     9.1870 C.3      28  POP22      -0.0348
  2948 H11R       -10.2560   -14.4150     9.7080 H        28  POP22       0.0307
  2949 H11S        -9.1560   -13.1630     8.8370 H        28  POP22       0.0307
  2950 C212       -10.9580   -13.3080     7.8540 C.3      28  POP22      -0.0496
  2951 H12R       -10.9830   -12.2180     7.5560 H        28  POP22       0.0268
  2952 H12S       -12.0220   -13.5340     8.0280 H        28  POP22       0.0268
  2953 C213       -10.6130   -14.2920     6.7800 C.3      28  POP22      -0.0528
  2954 H13R       -10.8280   -15.3310     7.2470 H        28  POP22       0.0265
  2955 H13S        -9.5260   -14.4630     6.6060 H        28  POP22       0.0265
  2956 C214       -11.3730   -14.1700     5.4830 C.3      28  POP22      -0.0530
  2957 H14R       -12.4310   -14.4570     5.5950 H        28  POP22       0.0265
  2958 H14S       -11.0020   -15.0290     4.8980 H        28  POP22       0.0265
  2959 C215       -11.2480   -12.8920     4.7470 C.3      28  POP22      -0.0531
  2960 H15R       -10.2420   -12.5100     4.7490 H        28  POP22       0.0265
  2961 H15S       -11.8280   -12.1560     5.4280 H        28  POP22       0.0265
  2962 C216       -11.9030   -12.9020     3.2960 C.3      28  POP22      -0.0533
  2963 H16R       -12.9420   -13.2970     3.4720 H        28  POP22       0.0265
  2964 H16S       -11.4660   -13.6390     2.6640 H        28  POP22       0.0265
  2965 C217       -11.9190   -11.4720     2.7240 C.3      28  POP22      -0.0559
  2966 H17R       -10.8510   -11.2500     2.5160 H        28  POP22       0.0263
  2967 H17S       -12.2300   -10.7420     3.5260 H        28  POP22       0.0263
  2968 C218       -12.7580   -11.2540     1.4080 C.3      28  POP22      -0.0653
  2969 H18R       -13.8750   -11.1930     1.5650 H        28  POP22       0.0230
  2970 H18S       -12.6340   -12.0540     0.6900 H        28  POP22       0.0230
  2971 H18T       -12.4370   -10.3300     0.9380 H        28  POP22       0.0230
  2972 C33         -6.4730   -10.5750    15.9880 C.3      28  POP22      -0.0441
  2973 H3X         -7.0130    -9.7500    16.3930 H        28  POP22       0.0270
  2974 H3Y         -6.7660   -10.7030    14.9310 H        28  POP22       0.0270
  2975 C34         -4.9570   -10.2380    16.0240 C.3      28  POP22      -0.0526
  2976 H4X         -4.4050   -11.1410    15.7210 H        28  POP22       0.0265
  2977 H4Y         -4.7210   -10.0140    17.1490 H        28  POP22       0.0265
  2978 C35         -4.5840    -9.1010    15.1430 C.3      28  POP22      -0.0530
  2979 H5X         -3.6180    -8.7220    15.4060 H        28  POP22       0.0265
  2980 H5Y         -5.2180    -8.2500    15.4170 H        28  POP22       0.0265
  2981 C36         -4.6760    -9.3170    13.6300 C.3      28  POP22      -0.0531
  2982 H6X         -5.7740    -9.4260    13.3260 H        28  POP22       0.0265
  2983 H6Y         -4.0750   -10.2510    13.3990 H        28  POP22       0.0265
  2984 C37         -4.0880    -8.1540    12.7780 C.3      28  POP22      -0.0531
  2985 H7X         -3.0730    -7.7530    13.0960 H        28  POP22       0.0265
  2986 H7Y         -4.7850    -7.3100    12.9060 H        28  POP22       0.0265
  2987 C38         -3.8460    -8.4620    11.3500 C.3      28  POP22      -0.0531
  2988 H8X         -4.6620    -9.1550    11.0590 H        28  POP22       0.0265
  2989 H8Y         -2.8560    -9.0060    11.1870 H        28  POP22       0.0265
  2990 C39         -4.0920    -7.3010    10.3010 C.3      28  POP22      -0.0531
  2991 H9X         -3.3450    -6.4550    10.5670 H        28  POP22       0.0265
  2992 H9Y         -5.1180    -6.9180    10.4530 H        28  POP22       0.0265
  2993 C310        -4.0190    -7.7950     8.8560 C.3      28  POP22      -0.0531
  2994 H10X        -4.6180    -8.6740     8.6930 H        28  POP22       0.0265
  2995 H10Y        -2.9720    -8.2230     8.7370 H        28  POP22       0.0265
  2996 C311        -4.1900    -6.7670     7.6550 C.3      28  POP22      -0.0531
  2997 H11X        -5.1920    -6.1920     7.6800 H        28  POP22       0.0265
  2998 H11Y        -4.1970    -7.4070     6.7260 H        28  POP22       0.0265
  2999 C312        -2.9860    -5.8300     7.4010 C.3      28  POP22      -0.0531
  3000 H12X        -3.0280    -5.5620     6.2940 H        28  POP22       0.0265
  3001 H12Y        -2.0250    -6.4480     7.4560 H        28  POP22       0.0265
  3002 C313        -2.9600    -4.5880     8.2600 C.3      28  POP22      -0.0531
  3003 H13X        -3.0190    -4.8240     9.3410 H        28  POP22       0.0265
  3004 H13Y        -3.8990    -4.0540     7.9240 H        28  POP22       0.0265
  3005 C314        -1.7390    -3.6830     7.8720 C.3      28  POP22      -0.0533
  3006 H14X        -1.6670    -3.5010     6.8010 H        28  POP22       0.0265
  3007 H14Y        -0.7460    -4.2600     8.1570 H        28  POP22       0.0265
  3008 C315        -1.5790    -2.3780     8.6870 C.3      28  POP22      -0.0559
  3009 H15X        -0.4620    -2.1090     8.7640 H        28  POP22       0.0263
  3010 H15Y        -1.7980    -2.6960     9.7680 H        28  POP22       0.0263
  3011 C316        -2.4280    -1.2570     8.2570 C.3      28  POP22      -0.0653
  3012 H16X        -3.4700    -1.5150     8.4970 H        28  POP22       0.0230
  3013 H16Y        -2.3100    -1.1010     7.1700 H        28  POP22       0.0230
  3014 H16Z        -2.2570    -0.2540     8.8160 H        28  POP22       0.0230
  3015 N            5.7180    16.6750    24.6880 N.3      29  POP23       0.2385
  3016 C12          6.2220    16.5610    23.2950 C.3      29  POP23      -0.0064
  3017 H12A         5.6520    15.7150    22.8820 H        29  POP23       0.0838
  3018 H12B         7.2480    16.3230    23.2720 H        29  POP23       0.0838
  3019 C13          6.4160    17.8330    25.3580 C.3      29  POP23      -0.0417
  3020 H13A         6.2550    18.6820    24.6060 H        29  POP23       0.0778
  3021 H13B         6.0840    18.1260    26.3360 H        29  POP23       0.0778
  3022 H13C         7.4810    17.7140    25.4290 H        29  POP23       0.0778
  3023 C14          4.2350    16.8540    24.6380 C.3      29  POP23      -0.0417
  3024 H14A         3.8270    15.9560    24.0420 H        29  POP23       0.0778
  3025 H14B         3.7300    16.7890    25.5770 H        29  POP23       0.0778
  3026 H14C         4.0250    17.7290    24.2020 H        29  POP23       0.0778
  3027 C15          5.9390    15.3880    25.4280 C.3      29  POP23      -0.0417
  3028 H15A         5.4960    15.4440    26.4410 H        29  POP23       0.0778
  3029 H15B         7.0370    15.2370    25.6380 H        29  POP23       0.0778
  3030 H15C         5.6470    14.5800    24.7150 H        29  POP23       0.0778
  3031 C11          5.9930    17.7760    22.3040 C.3      29  POP23       0.0954
  3032 H11A         4.8980    17.7550    22.0050 H        29  POP23       0.0618
  3033 H11B         6.5760    17.4280    21.4290 H        29  POP23       0.0618
  3034 P            7.7910    19.6940    22.0890 P.3      29  POP23       0.2645
  3035 O13          9.0060    18.8880    22.4810 O.co2    29  POP23      -0.5105
  3036 O14          7.7370    21.1410    22.4040 O.co2    29  POP23      -0.5105
  3037 O12          6.4700    19.0000    22.7430 O.3      29  POP23      -0.3154
  3038 O11          7.5950    19.4820    20.5770 O.3      29  POP23      -0.3181
  3039 C1           7.7230    20.5580    19.5770 C.3      29  POP23       0.0845
  3040 HA           7.7960    19.9950    18.6140 H        29  POP23       0.0591
  3041 HB           8.7080    21.0830    19.6710 H        29  POP23       0.0591
  3042 C2           6.4800    21.5130    19.5440 C.3      29  POP23       0.1155
  3043 HS           6.5340    22.0920    20.5300 H        29  POP23       0.0649
  3044 O21          5.1640    20.8800    19.3010 O.3      29  POP23      -0.3072
  3045 C21          4.0960    21.4700    19.7920 C.2      29  POP23       0.2626
  3046 O22          4.0420    22.5210    20.3650 O.2      29  POP23      -0.2650
  3047 C22          2.9430    20.5930    19.3100 C.3      29  POP23       0.0332
  3048 H2R          2.0200    21.1440    19.6910 H        29  POP23       0.0366
  3049 H2S          3.0120    19.5950    19.8420 H        29  POP23       0.0366
  3050 C3           6.6870    22.6070    18.5070 C.3      29  POP23       0.0860
  3051 HX           7.6510    23.0970    18.8670 H        29  POP23       0.0593
  3052 HY           5.9690    23.4790    18.6240 H        29  POP23       0.0593
  3053 O31          6.8840    22.0150    17.2250 O.3      29  POP23      -0.3125
  3054 C31          6.4210    22.7380    16.2580 C.2      29  POP23       0.2622
  3055 O32          5.9090    23.8580    16.4330 O.2      29  POP23      -0.2650
  3056 C32          6.3560    21.9900    14.9160 C.3      29  POP23       0.0332
  3057 H2X          5.7440    21.0830    14.9550 H        29  POP23       0.0366
  3058 H2Y          7.3570    21.6860    14.6080 H        29  POP23       0.0366
  3059 C23          2.9730    20.3560    17.8100 C.3      29  POP23      -0.0441
  3060 H3R          3.8660    19.8040    17.5300 H        29  POP23       0.0270
  3061 H3S          3.0850    21.2910    17.2830 H        29  POP23       0.0270
  3062 C24          1.6620    19.7850    17.2890 C.3      29  POP23      -0.0526
  3063 H4R          0.7850    20.4290    17.4920 H        29  POP23       0.0265
  3064 H4S          1.5190    18.8670    17.8230 H        29  POP23       0.0265
  3065 C25          1.7670    19.4250    15.7510 C.3      29  POP23      -0.0530
  3066 H5R          2.5200    18.6190    15.7840 H        29  POP23       0.0265
  3067 H5S          2.0840    20.2580    15.1530 H        29  POP23       0.0265
  3068 C26          0.4990    18.8930    15.1490 C.3      29  POP23      -0.0528
  3069 H6R          0.6610    18.7460    14.1240 H        29  POP23       0.0265
  3070 H6S         -0.3680    19.5390    15.2690 H        29  POP23       0.0265
  3071 C27          0.1660    17.3980    15.5720 C.3      29  POP23      -0.0496
  3072 H7R         -0.3300    17.3480    16.5870 H        29  POP23       0.0268
  3073 H7S          1.1150    16.8540    15.6570 H        29  POP23       0.0268
  3074 C28         -0.7880    16.7000    14.5480 C.3      29  POP23      -0.0348
  3075 H8R         -0.8570    15.6460    14.9240 H        29  POP23       0.0307
  3076 H8S         -0.2230    16.5190    13.5770 H        29  POP23       0.0307
  3077 C29         -2.1570    17.2300    14.5880 C.2      29  POP23      -0.0879
  3078 H91         -2.6870    17.1940    15.5120 H        29  POP23       0.0569
  3079 C210        -2.7300    17.9750    13.5880 C.2      29  POP23      -0.0879
  3080 H101        -3.6770    18.4350    13.6980 H        29  POP23       0.0569
  3081 C211        -2.1400    18.3560    12.2390 C.3      29  POP23      -0.0348
  3082 H11R        -1.2480    17.8500    11.8680 H        29  POP23       0.0307
  3083 H11S        -1.9010    19.4630    12.1490 H        29  POP23       0.0307
  3084 C212        -3.2430    18.1850    11.2530 C.3      29  POP23      -0.0496
  3085 H12R        -4.2180    18.7740    11.4670 H        29  POP23       0.0268
  3086 H12S        -3.4780    17.1800    11.3100 H        29  POP23       0.0268
  3087 C213        -2.7100    18.6580     9.8730 C.3      29  POP23      -0.0528
  3088 H13R        -1.9280    19.4590    10.0190 H        29  POP23       0.0265
  3089 H13S        -3.5270    19.1460     9.1650 H        29  POP23       0.0265
  3090 C214        -2.0310    17.5350     9.0960 C.3      29  POP23      -0.0530
  3091 H14R        -2.2200    16.5450     9.5110 H        29  POP23       0.0265
  3092 H14S        -0.9110    17.6000     9.2090 H        29  POP23       0.0265
  3093 C215        -2.3540    17.6130     7.6050 C.3      29  POP23      -0.0531
  3094 H15R        -2.4280    18.6710     7.4370 H        29  POP23       0.0265
  3095 H15S        -3.3750    17.2360     7.3350 H        29  POP23       0.0265
  3096 C216        -1.4070    16.9900     6.6010 C.3      29  POP23      -0.0533
  3097 H16R        -1.4550    15.9720     6.7650 H        29  POP23       0.0265
  3098 H16S        -0.4280    17.3660     6.6580 H        29  POP23       0.0265
  3099 C217        -1.8730    17.1270     5.0980 C.3      29  POP23      -0.0559
  3100 H17R        -2.8310    16.6400     5.1150 H        29  POP23       0.0263
  3101 H17S        -1.2000    16.3560     4.5920 H        29  POP23       0.0263
  3102 C218        -1.8240    18.5500     4.4760 C.3      29  POP23      -0.0653
  3103 H18R        -2.3360    18.5400     3.4010 H        29  POP23       0.0230
  3104 H18S        -0.8210    18.9540     4.4760 H        29  POP23       0.0230
  3105 H18T        -2.5010    19.1960     5.0670 H        29  POP23       0.0230
  3106 C33          5.6390    22.8830    13.7970 C.3      29  POP23      -0.0441
  3107 H3X          5.5830    23.9980    13.9620 H        29  POP23       0.0270
  3108 H3Y          4.5120    22.5620    13.6530 H        29  POP23       0.0270
  3109 C34          6.2700    22.7920    12.4740 C.3      29  POP23      -0.0526
  3110 H4X          6.1340    21.6840    12.1430 H        29  POP23       0.0265
  3111 H4Y          7.3690    23.1500    12.4690 H        29  POP23       0.0265
  3112 C35          5.3840    23.6470    11.5280 C.3      29  POP23      -0.0530
  3113 H5X          5.5490    24.6710    11.9090 H        29  POP23       0.0265
  3114 H5Y          4.3270    23.3690    11.5240 H        29  POP23       0.0265
  3115 C36          5.9170    23.5770    10.0960 C.3      29  POP23      -0.0531
  3116 H6X          7.0290    23.5460    10.1750 H        29  POP23       0.0265
  3117 H6Y          5.5240    24.4780     9.5270 H        29  POP23       0.0265
  3118 C37          5.3350    22.3480     9.2430 C.3      29  POP23      -0.0531
  3119 H7X          4.2670    22.3320     9.1130 H        29  POP23       0.0265
  3120 H7Y          5.5690    21.3420     9.6940 H        29  POP23       0.0265
  3121 C38          5.9000    22.3440     7.8020 C.3      29  POP23      -0.0531
  3122 H8X          6.9660    22.1250     7.7570 H        29  POP23       0.0265
  3123 H8Y          5.7380    23.3650     7.3130 H        29  POP23       0.0265
  3124 C39          5.4060    21.1640     6.9520 C.3      29  POP23      -0.0531
  3125 H9X          4.3450    21.4590     6.7000 H        29  POP23       0.0265
  3126 H9Y          5.3950    20.2390     7.5710 H        29  POP23       0.0265
  3127 C310         6.0260    20.9360     5.5500 C.3      29  POP23      -0.0531
  3128 H10X         5.6310    19.9910     5.0720 H        29  POP23       0.0265
  3129 H10Y         7.1190    20.6430     5.7000 H        29  POP23       0.0265
  3130 C311         5.9530    22.2420     4.6760 C.3      29  POP23      -0.0531
  3131 H11X         6.6550    22.9250     5.2580 H        29  POP23       0.0265
  3132 H11Y         4.9230    22.6110     4.8570 H        29  POP23       0.0265
  3133 C312         6.2710    22.0430     3.2620 C.3      29  POP23      -0.0531
  3134 H12X         6.2240    23.1200     2.8760 H        29  POP23       0.0265
  3135 H12Y         5.4650    21.5300     2.7490 H        29  POP23       0.0265
  3136 C313         7.6930    21.4340     2.9520 C.3      29  POP23      -0.0531
  3137 H13X         7.7510    21.1620     1.8500 H        29  POP23       0.0265
  3138 H13Y         7.6730    20.4090     3.5200 H        29  POP23       0.0265
  3139 C314         8.9130    22.2770     3.4300 C.3      29  POP23      -0.0533
  3140 H14X         9.0470    22.2800     4.5030 H        29  POP23       0.0265
  3141 H14Y         8.6360    23.2790     3.0820 H        29  POP23       0.0265
  3142 C315        10.2690    21.7690     2.8890 C.3      29  POP23      -0.0559
  3143 H15X        10.2390    21.6160     1.8140 H        29  POP23       0.0263
  3144 H15Y        10.3830    20.7190     3.3190 H        29  POP23       0.0263
  3145 C316        11.4680    22.6350     3.2700 C.3      29  POP23      -0.0653
  3146 H16X        11.5950    22.7560     4.4040 H        29  POP23       0.0230
  3147 H16Y        11.4010    23.6370     2.8220 H        29  POP23       0.0230
  3148 H16Z        12.4170    22.1950     2.8040 H        29  POP23       0.0230
  3149 N            7.1260   -15.1410    22.1350 N.3      30  POP24       0.2385
  3150 C12          8.1670   -16.0030    21.4030 C.3      30  POP24      -0.0064
  3151 H12A         9.0070   -16.1950    22.0870 H        30  POP24       0.0838
  3152 H12B         8.4950   -15.2660    20.6820 H        30  POP24       0.0838
  3153 C13          5.8530   -14.9850    21.4010 C.3      30  POP24      -0.0417
  3154 H13A         5.2900   -14.1020    21.8120 H        30  POP24       0.0778
  3155 H13B         5.9170   -14.6960    20.3140 H        30  POP24       0.0778
  3156 H13C         5.1610   -15.8160    21.4560 H        30  POP24       0.0778
  3157 C14          6.8670   -15.7250    23.4810 C.3      30  POP24      -0.0417
  3158 H14A         7.7650   -16.1860    23.9400 H        30  POP24       0.0778
  3159 H14B         6.3720   -15.1300    24.1950 H        30  POP24       0.0778
  3160 H14C         6.1990   -16.5750    23.3930 H        30  POP24       0.0778
  3161 C15          7.7320   -13.7230    22.3630 C.3      30  POP24      -0.0417
  3162 H15A         8.5380   -13.6870    23.0170 H        30  POP24       0.0778
  3163 H15B         6.9910   -13.1160    22.7350 H        30  POP24       0.0778
  3164 H15C         7.9840   -13.3560    21.3980 H        30  POP24       0.0778
  3165 C11          7.6880   -17.3650    20.7330 C.3      30  POP24       0.0954
  3166 H11A         8.3950   -17.7810    20.0400 H        30  POP24       0.0618
  3167 H11B         6.8580   -17.2700    20.0650 H        30  POP24       0.0618
  3168 P            7.9840   -19.7100    22.0000 P.3      30  POP24       0.2645
  3169 O13          6.9900   -20.8150    21.9290 O.co2    30  POP24      -0.5105
  3170 O14          8.7080   -19.6040    23.2740 O.co2    30  POP24      -0.5105
  3171 O12          7.2960   -18.3520    21.7410 O.3      30  POP24      -0.3154
  3172 O11          8.9940   -19.7560    20.7630 O.3      30  POP24      -0.3181
  3173 C1           8.9230   -20.9210    19.9320 C.3      30  POP24       0.0845
  3174 HA           8.0540   -20.7980    19.2330 H        30  POP24       0.0591
  3175 HB           8.8090   -21.8440    20.4950 H        30  POP24       0.0591
  3176 C2          10.2750   -21.0010    19.1110 C.3      30  POP24       0.1155
  3177 HS          11.0730   -21.2440    19.8790 H        30  POP24       0.0649
  3178 O21         10.4140   -19.7940    18.5100 O.3      30  POP24      -0.3072
  3179 C21         11.5580   -19.3820    18.0680 C.2      30  POP24       0.2626
  3180 O22         12.6250   -19.9370    18.1640 O.2      30  POP24      -0.2650
  3181 C22         11.4210   -18.0060    17.4500 C.3      30  POP24       0.0332
  3182 H2R         11.1340   -17.4410    18.3360 H        30  POP24       0.0366
  3183 H2S         10.6170   -18.1350    16.6130 H        30  POP24       0.0366
  3184 C3          10.3230   -22.0160    17.8910 C.3      30  POP24       0.0860
  3185 HX          10.1840   -23.0060    18.3840 H        30  POP24       0.0593
  3186 HY          11.3110   -21.9990    17.4950 H        30  POP24       0.0593
  3187 O31          9.2910   -21.8290    16.8760 O.3      30  POP24      -0.3125
  3188 C31          9.5840   -22.2190    15.6270 C.2      30  POP24       0.2622
  3189 O32         10.6540   -22.7050    15.2440 O.2      30  POP24      -0.2650
  3190 C32          8.3190   -22.0370    14.7970 C.3      30  POP24       0.0332
  3191 H2X          8.1140   -20.9170    14.7630 H        30  POP24       0.0366
  3192 H2Y          7.4980   -22.4740    15.4040 H        30  POP24       0.0366
  3193 C23         12.7280   -17.3340    17.0130 C.3      30  POP24      -0.0441
  3194 H3R         13.5270   -17.6410    17.5900 H        30  POP24       0.0270
  3195 H3S         12.6290   -16.2630    17.1380 H        30  POP24       0.0270
  3196 C24         13.1220   -17.5680    15.5610 C.3      30  POP24      -0.0526
  3197 H4R         13.4220   -16.5620    15.2200 H        30  POP24       0.0265
  3198 H4S         12.1880   -17.8530    14.9990 H        30  POP24       0.0265
  3199 C25         14.2040   -18.5360    15.3170 C.3      30  POP24      -0.0530
  3200 H5R         13.8210   -19.3980    15.8050 H        30  POP24       0.0265
  3201 H5S         15.1290   -18.1710    15.8390 H        30  POP24       0.0265
  3202 C26         14.5550   -18.7960    13.8220 C.3      30  POP24      -0.0528
  3203 H6R         15.5140   -19.2300    13.7230 H        30  POP24       0.0265
  3204 H6S         14.4120   -17.8450    13.2010 H        30  POP24       0.0265
  3205 C27         13.6640   -19.8500    13.1530 C.3      30  POP24      -0.0496
  3206 H7R         12.6030   -19.4720    13.1300 H        30  POP24       0.0268
  3207 H7S         13.6220   -20.8180    13.7900 H        30  POP24       0.0268
  3208 C28         14.0340   -20.3500    11.7800 C.3      30  POP24      -0.0348
  3209 H8R         13.6920   -21.4350    11.7220 H        30  POP24       0.0307
  3210 H8S         15.1320   -20.4940    11.6710 H        30  POP24       0.0307
  3211 C29         13.5100   -19.4680    10.6560 C.2      30  POP24      -0.0879
  3212 H91         12.4020   -19.4330    10.6350 H        30  POP24       0.0569
  3213 C210        14.2780   -18.6450     9.9490 C.2      30  POP24      -0.0879
  3214 H101        13.7960   -17.9550     9.2210 H        30  POP24       0.0569
  3215 C211        15.7890   -18.5140     9.9780 C.3      30  POP24      -0.0348
  3216 H11R        16.3550   -19.4390    10.1780 H        30  POP24       0.0307
  3217 H11S        15.9860   -17.8000    10.7750 H        30  POP24       0.0307
  3218 C212        16.3440   -17.9720     8.6420 C.3      30  POP24      -0.0496
  3219 H12R        15.5810   -17.6680     7.9200 H        30  POP24       0.0268
  3220 H12S        16.9060   -18.7630     8.0650 H        30  POP24       0.0268
  3221 C213        17.1840   -16.7050     8.8300 C.3      30  POP24      -0.0528
  3222 H13R        16.5580   -15.9190     9.3250 H        30  POP24       0.0265
  3223 H13S        17.4860   -16.2170     7.8220 H        30  POP24       0.0265
  3224 C214        18.3560   -17.0690     9.7280 C.3      30  POP24      -0.0530
  3225 H14R        18.8590   -17.9670     9.4420 H        30  POP24       0.0265
  3226 H14S        17.9990   -17.3520    10.6810 H        30  POP24       0.0265
  3227 C215        19.3850   -15.9850     9.7030 C.3      30  POP24      -0.0531
  3228 H15R        19.9150   -15.8280     8.7390 H        30  POP24       0.0265
  3229 H15S        20.2260   -16.2570    10.4000 H        30  POP24       0.0265
  3230 C216        18.9450   -14.6060    10.1110 C.3      30  POP24      -0.0533
  3231 H16R        18.2980   -14.6070    11.0520 H        30  POP24       0.0265
  3232 H16S        18.2140   -14.2220     9.3990 H        30  POP24       0.0265
  3233 C217        20.2150   -13.7610    10.2990 C.3      30  POP24      -0.0559
  3234 H17R        20.9310   -13.7390     9.4050 H        30  POP24       0.0263
  3235 H17S        20.8900   -14.3310    10.9860 H        30  POP24       0.0263
  3236 C218        19.9210   -12.3670    10.7850 C.3      30  POP24      -0.0653
  3237 H18R        19.1200   -11.8200    10.1420 H        30  POP24       0.0230
  3238 H18S        20.7500   -11.6360    10.9630 H        30  POP24       0.0230
  3239 H18T        19.6370   -12.2730    11.9270 H        30  POP24       0.0230
  3240 C33          8.3170   -22.5180    13.3110 C.3      30  POP24      -0.0441
  3241 H3X          8.6670   -23.5780    13.3500 H        30  POP24       0.0270
  3242 H3Y          9.1500   -22.0220    12.8200 H        30  POP24       0.0270
  3243 C34          6.9740   -22.4390    12.6100 C.3      30  POP24      -0.0526
  3244 H4X          6.6630   -21.3610    12.6010 H        30  POP24       0.0265
  3245 H4Y          6.2260   -22.9570    13.1190 H        30  POP24       0.0265
  3246 C35          7.0250   -23.0470    11.1230 C.3      30  POP24      -0.0530
  3247 H5X          7.3680   -24.1020    11.2620 H        30  POP24       0.0265
  3248 H5Y          7.6750   -22.5150    10.4260 H        30  POP24       0.0265
  3249 C36          5.6470   -23.1320    10.4160 C.3      30  POP24      -0.0531
  3250 H6X          5.3180   -22.0740    10.3000 H        30  POP24       0.0265
  3251 H6Y          4.9110   -23.7000    11.0580 H        30  POP24       0.0265
  3252 C37          5.8100   -23.6350     8.9260 C.3      30  POP24      -0.0531
  3253 H7X          6.3960   -24.5800     8.9580 H        30  POP24       0.0265
  3254 H7Y          6.3810   -22.7730     8.4970 H        30  POP24       0.0265
  3255 C38          4.5210   -23.9010     8.1450 C.3      30  POP24      -0.0531
  3256 H8X          4.8520   -24.1990     7.0580 H        30  POP24       0.0265
  3257 H8Y          3.9450   -22.9640     7.9990 H        30  POP24       0.0265
  3258 C39          3.5940   -25.0430     8.6070 C.3      30  POP24      -0.0531
  3259 H9X          3.1430   -24.6680     9.5520 H        30  POP24       0.0265
  3260 H9Y          4.2500   -25.9220     8.9570 H        30  POP24       0.0265
  3261 C310         2.5920   -25.3340     7.5530 C.3      30  POP24      -0.0531
  3262 H10X         3.2540   -25.5040     6.6260 H        30  POP24       0.0265
  3263 H10Y         1.9000   -24.4930     7.3230 H        30  POP24       0.0265
  3264 C311         1.8330   -26.6550     7.8410 C.3      30  POP24      -0.0531
  3265 H11X         1.2560   -26.5170     8.7510 H        30  POP24       0.0265
  3266 H11Y         2.6180   -27.4640     7.9990 H        30  POP24       0.0265
  3267 C312         1.0640   -27.1770     6.5710 C.3      30  POP24      -0.0531
  3268 H12X         1.7450   -27.3650     5.7130 H        30  POP24       0.0265
  3269 H12Y         0.4050   -26.4290     6.1670 H        30  POP24       0.0265
  3270 C313         0.2160   -28.4320     6.8470 C.3      30  POP24      -0.0531
  3271 H13X        -0.6170   -28.0240     7.5680 H        30  POP24       0.0265
  3272 H13Y         0.6430   -29.2130     7.5050 H        30  POP24       0.0265
  3273 C314        -0.3160   -29.0790     5.4980 C.3      30  POP24      -0.0533
  3274 H14X        -0.6710   -28.2090     4.8460 H        30  POP24       0.0265
  3275 H14Y        -1.2530   -29.5850     5.7740 H        30  POP24       0.0265
  3276 C315         0.7090   -29.9900     4.7010 C.3      30  POP24      -0.0559
  3277 H15X         1.0170   -30.7150     5.4230 H        30  POP24       0.0263
  3278 H15Y         1.6480   -29.4700     4.5510 H        30  POP24       0.0263
  3279 C316         0.1680   -30.6050     3.4120 C.3      30  POP24      -0.0653
  3280 H16X        -0.8010   -31.0710     3.5350 H        30  POP24       0.0230
  3281 H16Y         0.9420   -31.3210     3.1500 H        30  POP24       0.0230
  3282 H16Z         0.0810   -29.8980     2.5670 H        30  POP24       0.0230
  3283 N          -12.2500    30.3810    22.4470 N.3      31  POP25       0.2385
  3284 C12        -13.0390    30.4590    21.2000 C.3      31  POP25      -0.0064
  3285 H12A       -12.3980    30.8390    20.3590 H        31  POP25       0.0838
  3286 H12B       -13.8200    31.2250    21.2640 H        31  POP25       0.0838
  3287 C13        -11.7830    31.8070    22.7980 C.3      31  POP25      -0.0417
  3288 H13A       -12.6300    32.4470    22.9930 H        31  POP25       0.0778
  3289 H13B       -11.4560    31.7990    23.8150 H        31  POP25       0.0778
  3290 H13C       -10.9990    32.1430    22.2040 H        31  POP25       0.0778
  3291 C14        -12.9810    29.9080    23.6270 C.3      31  POP25      -0.0417
  3292 H14A       -12.3580    29.5420    24.4580 H        31  POP25       0.0778
  3293 H14B       -13.6230    30.7070    23.9570 H        31  POP25       0.0778
  3294 H14C       -13.5360    29.0140    23.2600 H        31  POP25       0.0778
  3295 C15        -11.0160    29.6260    22.3620 C.3      31  POP25      -0.0417
  3296 H15A       -10.4390    29.8750    21.4450 H        31  POP25       0.0778
  3297 H15B       -11.2190    28.6460    22.2100 H        31  POP25       0.0778
  3298 H15C       -10.3870    29.7850    23.2690 H        31  POP25       0.0778
  3299 C11        -13.6810    29.1410    20.5420 C.3      31  POP25       0.0954
  3300 H11A       -14.1500    29.4390    19.5980 H        31  POP25       0.0618
  3301 H11B       -14.4100    28.8510    21.3440 H        31  POP25       0.0618
  3302 P          -11.8920    27.9660    19.0000 P.3      31  POP25       0.2645
  3303 O13        -10.8420    26.9660    19.2620 O.co2    31  POP25      -0.5105
  3304 O14        -11.6300    29.3390    18.5640 O.co2    31  POP25      -0.5105
  3305 O12        -12.8040    28.0700    20.2410 O.3      31  POP25      -0.3154
  3306 O11        -12.9100    27.2110    18.0890 O.3      31  POP25      -0.3181
  3307 C1         -13.0670    27.6070    16.6820 C.3      31  POP25       0.0845
  3308 HA         -13.0780    28.6920    16.5620 H        31  POP25       0.0591
  3309 HB         -14.0500    27.2390    16.3060 H        31  POP25       0.0591
  3310 C2         -11.9520    27.0050    15.7190 C.3      31  POP25       0.1155
  3311 HS         -10.9460    27.4990    16.0440 H        31  POP25       0.0649
  3312 O21        -12.2010    27.4220    14.4040 O.3      31  POP25      -0.3072
  3313 C21        -11.1960    27.8450    13.6670 C.2      31  POP25       0.2626
  3314 O22         -9.9830    27.8250    13.9050 O.2      31  POP25      -0.2650
  3315 C22        -11.7820    28.3960    12.3360 C.3      31  POP25       0.0332
  3316 H2R        -11.1930    29.2730    12.0090 H        31  POP25       0.0366
  3317 H2S        -12.8150    28.7220    12.4210 H        31  POP25       0.0366
  3318 C3         -11.7850    25.4390    15.8670 C.3      31  POP25       0.0860
  3319 HX         -12.7580    24.9720    15.6520 H        31  POP25       0.0593
  3320 HY         -11.5240    25.1640    16.9280 H        31  POP25       0.0593
  3321 O31        -10.7910    24.8810    14.9670 O.3      31  POP25      -0.3125
  3322 C31        -10.7610    23.5120    14.8530 C.2      31  POP25       0.2622
  3323 O32        -11.4290    22.8260    15.5710 O.2      31  POP25      -0.2650
  3324 C32         -9.8570    23.0680    13.7560 C.3      31  POP25       0.0332
  3325 H2X         -9.9260    21.9720    13.6680 H        31  POP25       0.0366
  3326 H2Y         -8.8180    23.3200    14.0760 H        31  POP25       0.0366
  3327 C23        -11.6970    27.2540    11.3150 C.3      31  POP25      -0.0441
  3328 H3R        -12.2250    26.3550    11.5870 H        31  POP25       0.0270
  3329 H3S        -10.6750    26.8020    11.2830 H        31  POP25       0.0270
  3330 C24        -12.1060    27.6910     9.8630 C.3      31  POP25      -0.0526
  3331 H4R        -11.4410    28.5500     9.7250 H        31  POP25       0.0265
  3332 H4S        -13.2500    27.8340     9.8570 H        31  POP25       0.0265
  3333 C25        -11.9310    26.5090     8.8650 C.3      31  POP25      -0.0530
  3334 H5R        -12.5180    25.6410     9.2770 H        31  POP25       0.0265
  3335 H5S        -10.8540    26.3400     8.6970 H        31  POP25       0.0265
  3336 C26        -12.6900    26.7320     7.5110 C.3      31  POP25      -0.0528
  3337 H6R        -12.4960    27.7310     7.1440 H        31  POP25       0.0265
  3338 H6S        -13.7680    26.8090     7.5570 H        31  POP25       0.0265
  3339 C27        -12.3450    25.8140     6.3850 C.3      31  POP25      -0.0496
  3340 H7R        -12.6850    24.7900     6.7010 H        31  POP25       0.0268
  3341 H7S        -11.3020    25.9460     6.1280 H        31  POP25       0.0268
  3342 C28        -13.1660    26.1050     5.0460 C.3      31  POP25      -0.0348
  3343 H8R        -12.6350    25.5160     4.3220 H        31  POP25       0.0307
  3344 H8S        -13.0840    27.1060     4.7690 H        31  POP25       0.0307
  3345 C29        -14.6230    25.6890     5.1230 C.2      31  POP25      -0.0879
  3346 H91        -14.9710    25.1150     5.9530 H        31  POP25       0.0569
  3347 C210       -15.6150    26.0990     4.2670 C.2      31  POP25      -0.0879
  3348 H101       -16.6030    25.6860     4.3540 H        31  POP25       0.0569
  3349 C211       -15.4530    26.9830     3.0580 C.3      31  POP25      -0.0348
  3350 H11R       -14.7480    27.7700     3.4020 H        31  POP25       0.0307
  3351 H11S       -16.3770    27.5930     2.9620 H        31  POP25       0.0307
  3352 C212       -15.1220    26.2620     1.7200 C.3      31  POP25      -0.0496
  3353 H12R       -14.5440    25.3410     1.8130 H        31  POP25       0.0268
  3354 H12S       -14.4400    27.0570     1.1670 H        31  POP25       0.0268
  3355 C213       -16.2970    25.9530     0.7660 C.3      31  POP25      -0.0528
  3356 H13R       -16.9880    25.2600     1.3800 H        31  POP25       0.0265
  3357 H13S       -15.9200    25.4690    -0.1290 H        31  POP25       0.0265
  3358 C214       -17.1760    27.1650     0.2940 C.3      31  POP25      -0.0530
  3359 H14R       -16.4390    27.7390    -0.2930 H        31  POP25       0.0265
  3360 H14S       -17.3980    27.7520     1.1900 H        31  POP25       0.0265
  3361 C215       -18.2500    26.7490    -0.6110 C.3      31  POP25      -0.0531
  3362 H15R       -17.9090    26.0020    -1.4170 H        31  POP25       0.0265
  3363 H15S       -18.6380    27.6130    -1.1730 H        31  POP25       0.0265
  3364 C216       -19.4480    26.1710     0.2560 C.3      31  POP25      -0.0533
  3365 H16R       -19.8660    26.9430     0.9400 H        31  POP25       0.0265
  3366 H16S       -19.1100    25.3070     0.8180 H        31  POP25       0.0265
  3367 C217       -20.6110    25.7580    -0.5560 C.3      31  POP25      -0.0559
  3368 H17R       -20.8970    26.5880    -1.3150 H        31  POP25       0.0263
  3369 H17S       -21.5560    25.7320     0.1230 H        31  POP25       0.0263
  3370 C218       -20.4410    24.3620    -1.0990 C.3      31  POP25      -0.0653
  3371 H18R       -19.5890    24.2630    -1.7960 H        31  POP25       0.0230
  3372 H18S       -21.3560    24.1490    -1.7490 H        31  POP25       0.0230
  3373 H18T       -20.4480    23.5540    -0.3600 H        31  POP25       0.0230
  3374 C33        -10.1590    23.5520    12.3380 C.3      31  POP25      -0.0441
  3375 H3X         -9.9300    24.6080    12.3740 H        31  POP25       0.0270
  3376 H3Y        -11.2080    23.4030    12.1500 H        31  POP25       0.0270
  3377 C34         -9.3410    22.8550    11.2460 C.3      31  POP25      -0.0526
  3378 H4X         -9.7670    21.7910    11.0530 H        31  POP25       0.0265
  3379 H4Y         -8.3200    22.8780    11.6070 H        31  POP25       0.0265
  3380 C35         -9.4800    23.7030     9.9950 C.3      31  POP25      -0.0530
  3381 H5X         -9.1750    24.7020    10.1760 H        31  POP25       0.0265
  3382 H5Y        -10.5470    23.8480     9.7750 H        31  POP25       0.0265
  3383 C36         -8.8020    23.1800     8.7040 C.3      31  POP25      -0.0531
  3384 H6X         -9.0360    22.1240     8.5410 H        31  POP25       0.0265
  3385 H6Y         -7.7230    23.3360     8.8440 H        31  POP25       0.0265
  3386 C37         -9.4010    23.8370     7.5290 C.3      31  POP25      -0.0531
  3387 H7X         -9.3250    24.9200     7.7450 H        31  POP25       0.0265
  3388 H7Y        -10.4900    23.5690     7.5590 H        31  POP25       0.0265
  3389 C38         -8.7750    23.6210     6.1630 C.3      31  POP25      -0.0531
  3390 H8X         -9.1850    24.2040     5.3630 H        31  POP25       0.0265
  3391 H8Y         -9.0770    22.5820     5.7990 H        31  POP25       0.0265
  3392 C39         -7.2890    23.7800     6.1090 C.3      31  POP25      -0.0531
  3393 H9X         -6.8110    22.8770     6.4990 H        31  POP25       0.0265
  3394 H9Y         -6.9120    24.6510     6.6930 H        31  POP25       0.0265
  3395 C310        -6.8010    23.9660     4.6670 C.3      31  POP25      -0.0531
  3396 H10X        -6.5610    25.0560     4.4420 H        31  POP25       0.0265
  3397 H10Y        -7.6840    23.6890     4.1110 H        31  POP25       0.0265
  3398 C311        -5.5940    23.0420     4.3200 C.3      31  POP25      -0.0531
  3399 H11X        -5.9350    21.9270     4.5240 H        31  POP25       0.0265
  3400 H11Y        -4.8180    23.4090     5.0310 H        31  POP25       0.0265
  3401 C312        -5.0590    23.0740     2.8780 C.3      31  POP25      -0.0531
  3402 H12X        -4.7620    24.0800     2.6490 H        31  POP25       0.0265
  3403 H12Y        -5.8450    22.6480     2.1750 H        31  POP25       0.0265
  3404 C313        -3.9110    22.1050     2.7700 C.3      31  POP25      -0.0531
  3405 H13X        -4.3550    21.0810     2.7880 H        31  POP25       0.0265
  3406 H13Y        -3.2730    22.2720     3.6780 H        31  POP25       0.0265
  3407 C314        -3.1420    22.2980     1.4360 C.3      31  POP25      -0.0533
  3408 H14X        -2.7990    23.3910     1.5460 H        31  POP25       0.0265
  3409 H14Y        -3.8820    22.3920     0.6040 H        31  POP25       0.0265
  3410 C315        -2.0310    21.3340     0.9910 C.3      31  POP25      -0.0559
  3411 H15X        -1.4750    20.9820     1.9470 H        31  POP25       0.0263
  3412 H15Y        -1.3010    21.8630     0.3310 H        31  POP25       0.0263
  3413 C316        -2.5620    20.0530     0.3570 C.3      31  POP25      -0.0653
  3414 H16X        -2.9180    20.3470    -0.6610 H        31  POP25       0.0230
  3415 H16Y        -3.3770    19.5980     0.9520 H        31  POP25       0.0230
  3416 H16Z        -1.7690    19.2970     0.2110 H        31  POP25       0.0230
  3417 N           15.7220   -17.1010    20.6720 N.3      32  POP26       0.2385
  3418 C12         15.5590   -15.6430    20.2820 C.3      32  POP26      -0.0064
  3419 H12A        15.5340   -15.5600    19.1590 H        32  POP26       0.0838
  3420 H12B        16.4320   -15.1010    20.5840 H        32  POP26       0.0838
  3421 C13         15.9560   -17.2760    22.1420 C.3      32  POP26      -0.0417
  3422 H13A        16.8960   -16.9130    22.4500 H        32  POP26       0.0778
  3423 H13B        15.2700   -16.6820    22.7000 H        32  POP26       0.0778
  3424 H13C        15.8560   -18.2990    22.4640 H        32  POP26       0.0778
  3425 C14         14.5570   -17.9940    20.3300 C.3      32  POP26      -0.0417
  3426 H14A        14.5920   -18.2070    19.2520 H        32  POP26       0.0778
  3427 H14B        14.5240   -18.9470    20.8320 H        32  POP26       0.0778
  3428 H14C        13.6430   -17.4100    20.5960 H        32  POP26       0.0778
  3429 C15         16.9480   -17.5790    19.9720 C.3      32  POP26      -0.0417
  3430 H15A        17.0960   -18.6640    19.8540 H        32  POP26       0.0778
  3431 H15B        17.8460   -17.3490    20.5200 H        32  POP26       0.0778
  3432 H15C        17.0400   -17.1410    18.9850 H        32  POP26       0.0778
  3433 C11         14.4010   -14.7720    20.7270 C.3      32  POP26       0.0954
  3434 H11A        14.3850   -13.7260    20.3730 H        32  POP26       0.0618
  3435 H11B        14.7040   -14.7400    21.8610 H        32  POP26       0.0618
  3436 P           11.9240   -15.0350    21.4760 P.3      32  POP26       0.2645
  3437 O13         12.4610   -14.3580    22.6810 O.co2    32  POP26      -0.5105
  3438 O14         11.0280   -16.2210    21.6490 O.co2    32  POP26      -0.5105
  3439 O12         13.1420   -15.3970    20.5230 O.3      32  POP26      -0.3154
  3440 O11         11.1810   -13.9810    20.6040 O.3      32  POP26      -0.3181
  3441 C1          11.2450   -14.1890    19.1760 C.3      32  POP26       0.0845
  3442 HA          10.8370   -15.1450    18.8650 H        32  POP26       0.0591
  3443 HB          12.3240   -14.1650    18.7420 H        32  POP26       0.0591
  3444 C2          10.4190   -13.0950    18.3940 C.3      32  POP26       0.1155
  3445 HS          10.4110   -13.3370    17.2410 H        32  POP26       0.0649
  3446 O21         10.6840   -11.7070    18.5360 O.3      32  POP26      -0.3072
  3447 C21         11.8540   -11.1890    18.1380 C.2      32  POP26       0.2626
  3448 O22         12.8070   -11.8810    17.7980 O.2      32  POP26      -0.2650
  3449 C22         11.7320    -9.7350    17.9420 C.3      32  POP26       0.0332
  3450 H2R         11.2510    -9.3960    18.9340 H        32  POP26       0.0366
  3451 H2S         11.0540    -9.4620    17.0620 H        32  POP26       0.0366
  3452 C3           8.8810   -13.2730    18.7330 C.3      32  POP26       0.0860
  3453 HX           8.3840   -12.4900    18.1200 H        32  POP26       0.0593
  3454 HY           8.6320   -13.0100    19.7510 H        32  POP26       0.0593
  3455 O31          8.4100   -14.5870    18.4690 O.3      32  POP26      -0.3125
  3456 C31          7.8980   -14.9200    17.3240 C.2      32  POP26       0.2622
  3457 O32          7.8420   -14.2490    16.3080 O.2      32  POP26      -0.2650
  3458 C32          7.1840   -16.3080    17.5160 C.3      32  POP26       0.0332
  3459 H2X          6.3500   -16.1830    18.1990 H        32  POP26       0.0366
  3460 H2Y          7.8750   -17.0800    17.9630 H        32  POP26       0.0366
  3461 C23         13.0440    -8.9310    17.7910 C.3      32  POP26      -0.0441
  3462 H3R         13.5680    -9.0500    16.8620 H        32  POP26       0.0270
  3463 H3S         13.6870    -9.2870    18.6040 H        32  POP26       0.0270
  3464 C24         12.7230    -7.4420    18.0610 C.3      32  POP26      -0.0526
  3465 H4R         13.7060    -7.0410    18.2670 H        32  POP26       0.0265
  3466 H4S         12.1340    -7.3660    19.0060 H        32  POP26       0.0265
  3467 C25         11.9430    -6.6020    16.9900 C.3      32  POP26      -0.0530
  3468 H5R         12.0850    -5.4800    17.1960 H        32  POP26       0.0265
  3469 H5S         10.8550    -6.8270    16.9070 H        32  POP26       0.0265
  3470 C26         12.5550    -6.7380    15.5710 C.3      32  POP26      -0.0528
  3471 H6R         12.5940    -7.8260    15.2750 H        32  POP26       0.0265
  3472 H6S         13.5610    -6.2470    15.5990 H        32  POP26       0.0265
  3473 C27         11.5770    -5.8940    14.6340 C.3      32  POP26      -0.0496
  3474 H7R         11.7330    -4.8750    14.9220 H        32  POP26       0.0268
  3475 H7S         10.4970    -6.1490    14.8580 H        32  POP26       0.0268
  3476 C28         11.8100    -6.1320    13.1190 C.3      32  POP26      -0.0348
  3477 H8R         12.8710    -5.8930    12.8770 H        32  POP26       0.0307
  3478 H8S         11.1400    -5.4300    12.5910 H        32  POP26       0.0307
  3479 C29         11.4210    -7.5460    12.7250 C.2      32  POP26      -0.0879
  3480 H91         12.3110    -8.1730    12.9170 H        32  POP26       0.0569
  3481 C210        10.3870    -8.0430    12.1220 C.2      32  POP26      -0.0879
  3482 H101        10.4380    -9.0870    11.8240 H        32  POP26       0.0569
  3483 C211         9.2680    -7.1010    11.6860 C.3      32  POP26      -0.0348
  3484 H11R         9.5540    -6.0680    11.6590 H        32  POP26       0.0307
  3485 H11S         8.3240    -7.1430    12.4370 H        32  POP26       0.0307
  3486 C212         8.6930    -7.5740    10.3290 C.3      32  POP26      -0.0496
  3487 H12R         7.7990    -6.9590    10.1670 H        32  POP26       0.0268
  3488 H12S         8.2780    -8.6440    10.4590 H        32  POP26       0.0268
  3489 C213         9.6230    -7.5010     9.1650 C.3      32  POP26      -0.0528
  3490 H13R         9.0650    -7.4470     8.1950 H        32  POP26       0.0265
  3491 H13S        10.2040    -8.4370     9.1360 H        32  POP26       0.0265
  3492 C214        10.4830    -6.1580     9.1230 C.3      32  POP26      -0.0530
  3493 H14R        10.9550    -5.8650    10.0910 H        32  POP26       0.0265
  3494 H14S         9.7270    -5.3350     8.8010 H        32  POP26       0.0265
  3495 C215        11.5950    -6.2510     8.0370 C.3      32  POP26      -0.0531
  3496 H15R        11.0450    -6.3390     7.0700 H        32  POP26       0.0265
  3497 H15S        12.2200    -7.1260     8.1430 H        32  POP26       0.0265
  3498 C216        12.5200    -5.0790     8.0100 C.3      32  POP26      -0.0533
  3499 H16R        11.9650    -4.1230     8.1860 H        32  POP26       0.0265
  3500 H16S        13.0990    -5.1490     7.0770 H        32  POP26       0.0265
  3501 C217        13.6220    -5.1660     9.0740 C.3      32  POP26      -0.0559
  3502 H17R        14.4290    -5.8440     8.7760 H        32  POP26       0.0263
  3503 H17S        13.1640    -5.3840    10.0800 H        32  POP26       0.0263
  3504 C218        14.2260    -3.7150     9.3420 C.3      32  POP26      -0.0653
  3505 H18R        13.3800    -3.1210     9.3600 H        32  POP26       0.0230
  3506 H18S        14.9070    -3.3810     8.6110 H        32  POP26       0.0230
  3507 H18T        14.7040    -3.6470    10.3730 H        32  POP26       0.0230
  3508 C33          6.6010   -16.9610    16.1810 C.3      32  POP26      -0.0441
  3509 H3X          6.3370   -16.1570    15.4270 H        32  POP26       0.0270
  3510 H3Y          5.6660   -17.5370    16.4760 H        32  POP26       0.0270
  3511 C34          7.5520   -17.8320    15.3780 C.3      32  POP26      -0.0526
  3512 H4X          6.9550   -18.3370    14.6390 H        32  POP26       0.0265
  3513 H4Y          7.9950   -18.6100    15.9530 H        32  POP26       0.0265
  3514 C35          8.6870   -17.1470    14.5770 C.3      32  POP26      -0.0530
  3515 H5X          9.2200   -16.5540    15.3220 H        32  POP26       0.0265
  3516 H5Y          8.1940   -16.3780    13.8960 H        32  POP26       0.0265
  3517 C36          9.4740   -18.1190    13.6850 C.3      32  POP26      -0.0531
  3518 H6X          9.7960   -19.0730    14.1370 H        32  POP26       0.0265
  3519 H6Y         10.4490   -17.6340    13.4090 H        32  POP26       0.0265
  3520 C37          8.8470   -18.5910    12.3980 C.3      32  POP26      -0.0531
  3521 H7X          8.2770   -17.7440    11.9230 H        32  POP26       0.0265
  3522 H7Y          8.1060   -19.4280    12.6410 H        32  POP26       0.0265
  3523 C38          9.8090   -19.2610    11.4750 C.3      32  POP26      -0.0531
  3524 H8X         10.3760   -20.0500    11.9530 H        32  POP26       0.0265
  3525 H8Y         10.5420   -18.4910    11.1020 H        32  POP26       0.0265
  3526 C39          9.1980   -19.8970    10.2710 C.3      32  POP26      -0.0531
  3527 H9X          8.2490   -19.3940    10.0230 H        32  POP26       0.0265
  3528 H9Y          8.9430   -20.9410    10.5140 H        32  POP26       0.0265
  3529 C310        10.1520   -19.7870     9.0470 C.3      32  POP26      -0.0531
  3530 H10X        11.1250   -20.1780     9.3600 H        32  POP26       0.0265
  3531 H10Y        10.3040   -18.7260     8.8500 H        32  POP26       0.0265
  3532 C311         9.6610   -20.4780     7.8050 C.3      32  POP26      -0.0531
  3533 H11X         8.9270   -19.8540     7.2400 H        32  POP26       0.0265
  3534 H11Y         9.2260   -21.4670     8.0490 H        32  POP26       0.0265
  3535 C312        10.8340   -20.9030     6.7950 C.3      32  POP26      -0.0531
  3536 H12X        10.4410   -21.7320     6.2010 H        32  POP26       0.0265
  3537 H12Y        11.6880   -21.2760     7.3610 H        32  POP26       0.0265
  3538 C313        11.2590   -19.7980     5.9620 C.3      32  POP26      -0.0531
  3539 H13X        12.1340   -20.2020     5.4030 H        32  POP26       0.0265
  3540 H13Y        11.5190   -18.8560     6.4430 H        32  POP26       0.0265
  3541 C314        10.2170   -19.5150     4.8360 C.3      32  POP26      -0.0533
  3542 H14X         9.3850   -18.8810     5.2260 H        32  POP26       0.0265
  3543 H14Y         9.7230   -20.4720     4.5720 H        32  POP26       0.0265
  3544 C315        10.7870   -18.7150     3.6430 C.3      32  POP26      -0.0559
  3545 H15X        10.1320   -18.9180     2.6760 H        32  POP26       0.0263
  3546 H15Y        11.7450   -19.1320     3.3200 H        32  POP26       0.0263
  3547 C316        11.0140   -17.2070     3.8390 C.3      32  POP26      -0.0653
  3548 H16X        11.6780   -16.6820     3.0840 H        32  POP26       0.0230
  3549 H16Y        11.4410   -17.1430     4.8530 H        32  POP26       0.0230
  3550 H16Z        10.0010   -16.7000     3.9190 H        32  POP26       0.0230
  3551 N          -29.7410   -15.3410    19.8470 N.3      33  POP27       0.2385
  3552 C12        -29.4980   -16.1190    21.1860 C.3      33  POP27      -0.0064
  3553 H12A       -28.6950   -15.6220    21.7090 H        33  POP27       0.0838
  3554 H12B       -29.1140   -17.1200    21.0000 H        33  POP27       0.0838
  3555 C13        -30.3070   -13.9400    20.0690 C.3      33  POP27      -0.0417
  3556 H13A       -29.6420   -13.3160    20.7130 H        33  POP27       0.0778
  3557 H13B       -30.4300   -13.3650    19.2180 H        33  POP27       0.0778
  3558 H13C       -31.2010   -14.0610    20.5780 H        33  POP27       0.0778
  3559 C14        -28.3920   -15.1260    19.1280 C.3      33  POP27      -0.0417
  3560 H14A       -27.8780   -16.0390    18.9980 H        33  POP27       0.0778
  3561 H14B       -28.5490   -14.8000    18.0810 H        33  POP27       0.0778
  3562 H14C       -27.7120   -14.3780    19.5650 H        33  POP27       0.0778
  3563 C15        -30.6320   -16.1100    18.9760 C.3      33  POP27      -0.0417
  3564 H15A       -30.1660   -17.0970    18.7690 H        33  POP27       0.0778
  3565 H15B       -30.7350   -15.7310    17.9180 H        33  POP27       0.0778
  3566 H15C       -31.6120   -16.1890    19.4030 H        33  POP27       0.0778
  3567 C11        -30.7480   -16.2650    22.1390 C.3      33  POP27       0.0954
  3568 H11A       -31.2020   -15.2930    22.5110 H        33  POP27       0.0618
  3569 H11B       -30.4610   -16.6900    23.1330 H        33  POP27       0.0618
  3570 P          -33.3020   -16.4800    21.3790 P.3      33  POP27       0.2645
  3571 O13        -33.1480   -15.1440    20.7010 O.co2    33  POP27      -0.5105
  3572 O14        -33.9940   -16.5260    22.6960 O.co2    33  POP27      -0.5105
  3573 O12        -31.8340   -17.0550    21.5150 O.3      33  POP27      -0.3154
  3574 O11        -34.0090   -17.5700    20.4730 O.3      33  POP27      -0.3181
  3575 C1         -33.3980   -18.4780    19.5870 C.3      33  POP27       0.0845
  3576 HA         -33.2930   -19.5140    20.0260 H        33  POP27       0.0591
  3577 HB         -32.3420   -18.2060    19.4100 H        33  POP27       0.0591
  3578 C2         -34.1300   -18.5910    18.2510 C.3      33  POP27       0.1155
  3579 HS         -34.1940   -17.5550    17.8650 H        33  POP27       0.0649
  3580 O21        -35.4040   -19.2520    18.5120 O.3      33  POP27      -0.3072
  3581 C21        -36.3890   -18.8910    17.7310 C.2      33  POP27       0.2626
  3582 O22        -36.3510   -17.9200    16.9390 O.2      33  POP27      -0.2650
  3583 C22        -37.4930   -19.9430    17.7670 C.3      33  POP27       0.0332
  3584 H2R        -38.5000   -19.5200    17.7700 H        33  POP27       0.0366
  3585 H2S        -37.4750   -20.2840    18.8130 H        33  POP27       0.0366
  3586 C3         -33.4230   -19.4100    17.1250 C.3      33  POP27       0.0860
  3587 HX         -33.1460   -20.4760    17.4720 H        33  POP27       0.0593
  3588 HY         -32.4670   -18.8350    17.1620 H        33  POP27       0.0593
  3589 O31        -34.1870   -19.4730    15.8750 O.3      33  POP27      -0.3125
  3590 C31        -33.2800   -19.5480    14.8440 C.2      33  POP27       0.2622
  3591 O32        -32.0530   -19.4600    14.9540 O.2      33  POP27      -0.2650
  3592 C32        -34.0750   -19.5160    13.5450 C.3      33  POP27       0.0332
  3593 H2X        -34.8610   -18.7630    13.5520 H        33  POP27       0.0366
  3594 H2Y        -34.5730   -20.5190    13.4780 H        33  POP27       0.0366
  3595 C23        -37.3040   -21.0300    16.6740 C.3      33  POP27      -0.0441
  3596 H3R        -37.8460   -21.8680    17.1340 H        33  POP27       0.0270
  3597 H3S        -36.2820   -21.3370    16.4290 H        33  POP27       0.0270
  3598 C24        -38.0380   -20.7300    15.4080 C.3      33  POP27      -0.0526
  3599 H4R        -37.6690   -19.8150    14.9720 H        33  POP27       0.0265
  3600 H4S        -39.0720   -20.6130    15.7430 H        33  POP27       0.0265
  3601 C25        -38.0450   -21.9030    14.3290 C.3      33  POP27      -0.0530
  3602 H5R        -38.5660   -22.7450    14.8030 H        33  POP27       0.0265
  3603 H5S        -37.0450   -22.1890    14.0990 H        33  POP27       0.0265
  3604 C26        -38.7830   -21.5240    12.9740 C.3      33  POP27      -0.0528
  3605 H6R        -39.7390   -20.9890    13.2000 H        33  POP27       0.0265
  3606 H6S        -38.9630   -22.4170    12.3710 H        33  POP27       0.0265
  3607 C27        -37.8830   -20.6490    12.0900 C.3      33  POP27      -0.0496
  3608 H7R        -36.9200   -21.1920    11.9230 H        33  POP27       0.0268
  3609 H7S        -37.6590   -19.7510    12.7530 H        33  POP27       0.0268
  3610 C28        -38.4770   -20.2770    10.7620 C.3      33  POP27      -0.0348
  3611 H8R        -38.5840   -21.1870    10.1270 H        33  POP27       0.0307
  3612 H8S        -37.8150   -19.6250    10.1730 H        33  POP27       0.0307
  3613 C29        -39.7790   -19.4470    10.9500 C.2      33  POP27      -0.0879
  3614 H91        -39.7620   -18.8500    11.9140 H        33  POP27       0.0569
  3615 C210       -40.9900   -19.6460    10.4100 C.2      33  POP27      -0.0879
  3616 H101       -41.8420   -19.0710    10.8090 H        33  POP27       0.0569
  3617 C211       -41.3890   -20.6120     9.2890 C.3      33  POP27      -0.0348
  3618 H11R       -42.4300   -21.0170     9.4280 H        33  POP27       0.0307
  3619 H11S       -40.8240   -21.5660     9.3060 H        33  POP27       0.0307
  3620 C212       -41.4370   -19.9320     7.9350 C.3      33  POP27      -0.0496
  3621 H12R       -40.3750   -19.4310     7.7430 H        33  POP27       0.0268
  3622 H12S       -42.3090   -19.2740     7.8030 H        33  POP27       0.0268
  3623 C213       -41.5920   -20.7530     6.6710 C.3      33  POP27      -0.0528
  3624 H13R       -42.5270   -21.3800     6.8830 H        33  POP27       0.0265
  3625 H13S       -40.9130   -21.5820     6.4010 H        33  POP27       0.0265
  3626 C214       -41.8900   -19.9480     5.4700 C.3      33  POP27      -0.0530
  3627 H14R       -41.1670   -19.2480     5.2450 H        33  POP27       0.0265
  3628 H14S       -42.7900   -19.3380     5.6960 H        33  POP27       0.0265
  3629 C215       -42.3260   -20.7990     4.2620 C.3      33  POP27      -0.0531
  3630 H15R       -42.7680   -20.2830     3.4020 H        33  POP27       0.0265
  3631 H15S       -43.0090   -21.6390     4.5100 H        33  POP27       0.0265
  3632 C216       -41.0330   -21.5680     3.6820 C.3      33  POP27      -0.0533
  3633 H16R       -40.6060   -22.2510     4.4060 H        33  POP27       0.0265
  3634 H16S       -40.2750   -20.8470     3.4600 H        33  POP27       0.0265
  3635 C217       -41.3460   -22.3200     2.3750 C.3      33  POP27      -0.0559
  3636 H17R       -40.4240   -22.9230     2.0470 H        33  POP27       0.0263
  3637 H17S       -41.6960   -21.6190     1.5570 H        33  POP27       0.0263
  3638 C218       -42.5340   -23.2390     2.5230 C.3      33  POP27      -0.0653
  3639 H18R       -42.5200   -24.0930     1.8440 H        33  POP27       0.0230
  3640 H18S       -43.5030   -22.7050     2.5100 H        33  POP27       0.0230
  3641 H18T       -42.5630   -23.6570     3.5390 H        33  POP27       0.0230
  3642 C33        -33.3720   -19.4650    12.2330 C.3      33  POP27      -0.0441
  3643 H3X        -34.0170   -19.8750    11.4770 H        33  POP27       0.0270
  3644 H3Y        -32.5370   -20.1470    12.2600 H        33  POP27       0.0270
  3645 C34        -32.9360   -18.1080    11.7800 C.3      33  POP27      -0.0526
  3646 H4X        -32.4270   -17.5880    12.6140 H        33  POP27       0.0265
  3647 H4Y        -33.8430   -17.5400    11.5710 H        33  POP27       0.0265
  3648 C35        -31.9320   -18.1090    10.5870 C.3      33  POP27      -0.0530
  3649 H5X        -31.3030   -19.0570    10.6780 H        33  POP27       0.0265
  3650 H5Y        -31.2380   -17.2520    10.6920 H        33  POP27       0.0265
  3651 C36        -32.5480   -18.0580     9.2330 C.3      33  POP27      -0.0531
  3652 H6X        -32.8620   -17.0750     9.0580 H        33  POP27       0.0265
  3653 H6Y        -33.3200   -18.9790     9.0890 H        33  POP27       0.0265
  3654 C37        -31.4880   -18.3010     8.0760 C.3      33  POP27      -0.0531
  3655 H7X        -31.0850   -19.3570     8.0330 H        33  POP27       0.0265
  3656 H7Y        -30.6410   -17.6510     8.2200 H        33  POP27       0.0265
  3657 C38        -32.1210   -17.9430     6.7230 C.3      33  POP27      -0.0531
  3658 H8X        -32.6680   -17.0310     6.7160 H        33  POP27       0.0265
  3659 H8Y        -32.8390   -18.7190     6.3780 H        33  POP27       0.0265
  3660 C39        -30.9790   -17.9210     5.6570 C.3      33  POP27      -0.0531
  3661 H9X        -30.3690   -18.8390     5.8570 H        33  POP27       0.0265
  3662 H9Y        -30.1960   -17.0890     5.7610 H        33  POP27       0.0265
  3663 C310       -31.5370   -18.0340     4.1910 C.3      33  POP27      -0.0531
  3664 H10X       -31.9150   -17.0260     3.9130 H        33  POP27       0.0265
  3665 H10Y       -32.3670   -18.8130     4.2090 H        33  POP27       0.0265
  3666 C311       -30.4510   -18.3700     3.2110 C.3      33  POP27      -0.0531
  3667 H11X       -29.9740   -19.2860     3.4220 H        33  POP27       0.0265
  3668 H11Y       -29.6190   -17.7220     3.3400 H        33  POP27       0.0265
  3669 C312       -30.8890   -18.3180     1.7210 C.3      33  POP27      -0.0531
  3670 H12X       -31.6080   -17.4800     1.5850 H        33  POP27       0.0265
  3671 H12Y       -31.5320   -19.1230     1.3940 H        33  POP27       0.0265
  3672 C313       -29.6620   -18.2800     0.8310 C.3      33  POP27      -0.0531
  3673 H13X       -29.0250   -19.1610     0.9690 H        33  POP27       0.0265
  3674 H13Y       -29.0010   -17.4490     1.0960 H        33  POP27       0.0265
  3675 C314       -29.9680   -18.0590    -0.6420 C.3      33  POP27      -0.0533
  3676 H14X       -30.9770   -17.5280    -0.5930 H        33  POP27       0.0265
  3677 H14Y       -30.2550   -19.0440    -1.0580 H        33  POP27       0.0265
  3678 C315       -28.9200   -17.2850    -1.3800 C.3      33  POP27      -0.0559
  3679 H15X       -27.9610   -17.6100    -1.1390 H        33  POP27       0.0263
  3680 H15Y       -28.9890   -16.2440    -1.0900 H        33  POP27       0.0263
  3681 C316       -29.1090   -17.4390    -2.8810 C.3      33  POP27      -0.0653
  3682 H16X       -28.3640   -16.8500    -3.4730 H        33  POP27       0.0230
  3683 H16Y       -30.0260   -16.9660    -3.2810 H        33  POP27       0.0230
  3684 H16Z       -29.0370   -18.5480    -3.1100 H        33  POP27       0.0230
  3685 N          -10.1050    16.7500    23.2540 N.3      34  POP28       0.2385
  3686 C12         -9.6190    16.9200    21.8250 C.3      34  POP28      -0.0064
  3687 H12A        -9.9840    16.1340    21.0870 H        34  POP28       0.0838
  3688 H12B        -8.5300    16.7650    21.8000 H        34  POP28       0.0838
  3689 C13         -9.2820    17.4500    24.2600 C.3      34  POP28      -0.0417
  3690 H13A        -8.4030    16.7940    24.5610 H        34  POP28       0.0778
  3691 H13B        -8.8880    18.4050    23.9810 H        34  POP28       0.0778
  3692 H13C        -9.8390    17.6180    25.1390 H        34  POP28       0.0778
  3693 C14        -11.5180    17.1160    23.3420 C.3      34  POP28      -0.0417
  3694 H14A       -12.1030    16.5160    22.6580 H        34  POP28       0.0778
  3695 H14B       -11.9230    16.9130    24.3330 H        34  POP28       0.0778
  3696 H14C       -11.5600    18.1480    23.1050 H        34  POP28       0.0778
  3697 C15         -9.9730    15.2850    23.6020 C.3      34  POP28      -0.0417
  3698 H15A       -10.5120    14.5740    22.9130 H        34  POP28       0.0778
  3699 H15B       -10.4600    15.0230    24.4930 H        34  POP28       0.0778
  3700 H15C        -8.9020    15.0760    23.6160 H        34  POP28       0.0778
  3701 C11         -9.9440    18.2960    21.1670 C.3      34  POP28       0.0954
  3702 H11A       -11.0200    18.4400    21.0730 H        34  POP28       0.0618
  3703 H11B        -9.6510    18.2440    20.1220 H        34  POP28       0.0618
  3704 P           -8.1490    20.2940    21.3780 P.3      34  POP28       0.2645
  3705 O13         -6.8900    19.8080    22.0460 O.co2    34  POP28      -0.5105
  3706 O14         -8.5740    21.6550    21.7090 O.co2    34  POP28      -0.5105
  3707 O12         -9.3430    19.4300    21.8340 O.3      34  POP28      -0.3154
  3708 O11         -8.1530    20.0810    19.7440 O.3      34  POP28      -0.3181
  3709 C1          -9.0740    20.8230    18.9240 C.3      34  POP28       0.0845
  3710 HA          -8.9130    21.8840    19.0740 H        34  POP28       0.0591
  3711 HB         -10.0910    20.7970    19.3110 H        34  POP28       0.0591
  3712 C2          -8.9400    20.5390    17.4130 C.3      34  POP28       0.1155
  3713 HS          -9.7370    21.0730    16.7790 H        34  POP28       0.0649
  3714 O21         -8.9180    19.0860    17.2020 O.3      34  POP28      -0.3072
  3715 C21        -10.0800    18.5760    17.1550 C.2      34  POP28       0.2626
  3716 O22        -11.0930    19.0620    17.6490 O.2      34  POP28      -0.2650
  3717 C22        -10.0630    17.2890    16.3690 C.3      34  POP28       0.0332
  3718 H2R        -10.1910    16.5300    17.1640 H        34  POP28       0.0366
  3719 H2S         -9.0430    17.1950    15.8500 H        34  POP28       0.0366
  3720 C3          -7.6010    21.0300    16.9430 C.3      34  POP28       0.0860
  3721 HX          -6.8210    20.3620    17.3590 H        34  POP28       0.0593
  3722 HY          -7.3850    22.0320    17.4000 H        34  POP28       0.0593
  3723 O31         -7.3450    21.1990    15.5180 O.3      34  POP28      -0.3125
  3724 C31         -6.1100    21.1590    15.1200 C.2      34  POP28       0.2622
  3725 O32         -5.1450    20.8050    15.7690 O.2      34  POP28      -0.2650
  3726 C32         -6.0460    21.5470    13.6000 C.3      34  POP28       0.0332
  3727 H2X         -6.8780    22.2680    13.4570 H        34  POP28       0.0366
  3728 H2Y         -6.0730    20.6960    12.9960 H        34  POP28       0.0366
  3729 C23        -11.2760    17.2120    15.3700 C.3      34  POP28      -0.0441
  3730 H3R        -12.2390    17.6430    15.8550 H        34  POP28       0.0270
  3731 H3S        -11.4650    16.1990    15.1270 H        34  POP28       0.0270
  3732 C24        -10.9960    18.1000    14.1560 C.3      34  POP28      -0.0526
  3733 H4R        -10.2230    17.5160    13.5500 H        34  POP28       0.0265
  3734 H4S        -10.5760    19.1300    14.3300 H        34  POP28       0.0265
  3735 C25        -12.2180    18.3680    13.2760 C.3      34  POP28      -0.0530
  3736 H5R        -12.9760    18.9700    13.8480 H        34  POP28       0.0265
  3737 H5S        -12.8050    17.4600    12.9140 H        34  POP28       0.0265
  3738 C26        -11.9430    19.2830    12.0660 C.3      34  POP28      -0.0528
  3739 H6R        -10.9900    19.0580    11.6030 H        34  POP28       0.0265
  3740 H6S        -11.8330    20.3630    12.4580 H        34  POP28       0.0265
  3741 C27        -13.0510    19.3500    11.0450 C.3      34  POP28      -0.0496
  3742 H7R        -13.0780    20.4060    10.6210 H        34  POP28       0.0268
  3743 H7S        -14.0710    19.3080    11.5400 H        34  POP28       0.0268
  3744 C28        -12.9740    18.2120    10.0740 C.3      34  POP28      -0.0348
  3745 H8R        -13.9390    18.1320     9.4980 H        34  POP28       0.0307
  3746 H8S        -13.0050    17.2070    10.4540 H        34  POP28       0.0307
  3747 C29        -11.7950    18.3090     9.1600 C.2      34  POP28      -0.0879
  3748 H91        -10.9750    17.6150     9.4620 H        34  POP28       0.0569
  3749 C210       -11.7400    18.9020     7.9300 C.2      34  POP28      -0.0879
  3750 H101       -10.7260    18.8530     7.4440 H        34  POP28       0.0569
  3751 C211       -12.7460    19.7430     7.2370 C.3      34  POP28      -0.0348
  3752 H11R       -13.3720    20.4170     7.9580 H        34  POP28       0.0307
  3753 H11S       -13.4470    19.0590     6.6730 H        34  POP28       0.0307
  3754 C212       -12.0290    20.5930     6.1740 C.3      34  POP28      -0.0496
  3755 H12R       -11.4750    19.9890     5.4460 H        34  POP28       0.0268
  3756 H12S       -11.2680    21.1800     6.6670 H        34  POP28       0.0268
  3757 C213       -12.9790    21.6010     5.5330 C.3      34  POP28      -0.0528
  3758 H13R       -12.3640    22.2800     4.9480 H        34  POP28       0.0265
  3759 H13S       -13.4310    22.0970     6.3790 H        34  POP28       0.0265
  3760 C214       -13.9610    20.9610     4.5740 C.3      34  POP28      -0.0530
  3761 H14R       -14.5540    20.1900     5.0660 H        34  POP28       0.0265
  3762 H14S       -13.4130    20.4420     3.7660 H        34  POP28       0.0265
  3763 C215       -15.0070    21.9580     4.0350 C.3      34  POP28      -0.0531
  3764 H15R       -14.5740    22.8930     3.5260 H        34  POP28       0.0265
  3765 H15S       -15.5300    22.3220     4.9710 H        34  POP28       0.0265
  3766 C216       -15.9680    21.3190     3.0710 C.3      34  POP28      -0.0533
  3767 H16R       -15.3850    20.5270     2.4410 H        34  POP28       0.0265
  3768 H16S       -16.7670    20.8230     3.6800 H        34  POP28       0.0265
  3769 C217       -16.6700    22.4320     2.2260 C.3      34  POP28      -0.0559
  3770 H17R       -15.9750    23.0820     1.6550 H        34  POP28       0.0263
  3771 H17S       -17.0250    23.0760     2.9170 H        34  POP28       0.0263
  3772 C218       -17.7450    21.8760     1.1990 C.3      34  POP28      -0.0653
  3773 H18R       -18.2400    22.7260     0.5870 H        34  POP28       0.0230
  3774 H18S       -18.5180    21.3180     1.8240 H        34  POP28       0.0230
  3775 H18T       -17.2040    21.1410     0.4980 H        34  POP28       0.0230
  3776 C33         -4.7040    22.2650    13.4210 C.3      34  POP28      -0.0441
  3777 H3X         -3.8800    21.5510    13.5480 H        34  POP28       0.0270
  3778 H3Y         -4.5750    22.9400    14.2150 H        34  POP28       0.0270
  3779 C34         -4.5910    23.0670    12.0550 C.3      34  POP28      -0.0526
  3780 H4X         -3.6920    23.6670    12.0760 H        34  POP28       0.0265
  3781 H4Y         -5.4980    23.6910    12.0420 H        34  POP28       0.0265
  3782 C35         -4.4780    22.1310    10.8410 C.3      34  POP28      -0.0530
  3783 H5X         -5.3900    21.4550    10.9190 H        34  POP28       0.0265
  3784 H5Y         -3.5730    21.3800    10.8440 H        34  POP28       0.0265
  3785 C36         -4.4760    22.8120     9.4620 C.3      34  POP28      -0.0531
  3786 H6X         -5.2490    23.6340     9.4580 H        34  POP28       0.0265
  3787 H6Y         -4.8050    21.9750     8.8050 H        34  POP28       0.0265
  3788 C37         -3.1100    23.3600     9.0650 C.3      34  POP28      -0.0531
  3789 H7X         -2.3580    22.4530     9.2260 H        34  POP28       0.0265
  3790 H7Y         -2.7500    24.2160     9.7080 H        34  POP28       0.0265
  3791 C38         -3.1530    23.6900     7.5950 C.3      34  POP28      -0.0531
  3792 H8X         -3.7840    24.5350     7.3170 H        34  POP28       0.0265
  3793 H8Y         -3.4390    22.9280     6.9470 H        34  POP28       0.0265
  3794 C39         -1.7020    24.0980     7.0430 C.3      34  POP28      -0.0531
  3795 H9X         -1.0270    23.3140     7.5730 H        34  POP28       0.0265
  3796 H9Y         -1.4700    25.0610     7.4100 H        34  POP28       0.0265
  3797 C310        -1.5060    24.1200     5.5030 C.3      34  POP28      -0.0531
  3798 H10X        -2.4570    24.5000     5.1110 H        34  POP28       0.0265
  3799 H10Y        -1.3590    23.1530     5.0250 H        34  POP28       0.0265
  3800 C311        -0.2000    24.9540     5.1460 C.3      34  POP28      -0.0531
  3801 H11X         0.6580    24.4660     5.5950 H        34  POP28       0.0265
  3802 H11Y        -0.4050    25.9420     5.7070 H        34  POP28       0.0265
  3803 C312        -0.0000    25.1880     3.6740 C.3      34  POP28      -0.0531
  3804 H12X         0.0590    24.1760     3.1460 H        34  POP28       0.0265
  3805 H12Y         0.9920    25.7890     3.5160 H        34  POP28       0.0265
  3806 C313        -0.9830    26.1630     3.0820 C.3      34  POP28      -0.0531
  3807 H13X        -1.1940    26.9440     3.8350 H        34  POP28       0.0265
  3808 H13Y        -1.9020    25.5420     2.9310 H        34  POP28       0.0265
  3809 C314        -0.4650    26.7760     1.7670 C.3      34  POP28      -0.0533
  3810 H14X        -0.3340    25.8660     1.0600 H        34  POP28       0.0265
  3811 H14Y         0.4270    27.4440     1.9800 H        34  POP28       0.0265
  3812 C315        -1.5520    27.7020     1.2230 C.3      34  POP28      -0.0559
  3813 H15X        -1.8620    28.3960     2.0390 H        34  POP28       0.0263
  3814 H15Y        -2.4210    27.1800     1.0310 H        34  POP28       0.0263
  3815 C316        -0.9520    28.6180     0.2040 C.3      34  POP28      -0.0653
  3816 H16X        -0.7280    28.1300    -0.7900 H        34  POP28       0.0230
  3817 H16Y         0.0310    28.9870     0.5700 H        34  POP28       0.0230
  3818 H16Z        -1.5030    29.5910     0.0410 H        34  POP28       0.0230
  3819 N           24.2810    27.7990    23.9970 N.3      35  POP29       0.2385
  3820 C12         24.3710    28.9830    23.0970 C.3      35  POP29      -0.0064
  3821 H12A        24.2200    29.9090    23.7260 H        35  POP29       0.0838
  3822 H12B        23.6200    29.0010    22.3020 H        35  POP29       0.0838
  3823 C13         24.4280    26.5300    23.2700 C.3      35  POP29      -0.0417
  3824 H13A        25.5680    26.3700    23.0240 H        35  POP29       0.0778
  3825 H13B        24.0930    25.8140    23.8650 H        35  POP29       0.0778
  3826 H13C        23.9400    26.4130    22.3230 H        35  POP29       0.0778
  3827 C14         25.4070    27.8740    25.0930 C.3      35  POP29      -0.0417
  3828 H14A        26.2930    28.0860    24.4970 H        35  POP29       0.0778
  3829 H14B        25.2340    28.5940    25.8700 H        35  POP29       0.0778
  3830 H14C        25.4770    26.8870    25.5310 H        35  POP29       0.0778
  3831 C15         22.8950    27.7460    24.6740 C.3      35  POP29      -0.0417
  3832 H15A        22.1010    27.6260    23.9100 H        35  POP29       0.0778
  3833 H15B        22.6210    28.6160    25.3190 H        35  POP29       0.0778
  3834 H15C        22.8950    26.8400    25.2510 H        35  POP29       0.0778
  3835 C11         25.7130    29.1060    22.3380 C.3      35  POP29       0.0954
  3836 H11A        25.6120    29.9920    21.5870 H        35  POP29       0.0618
  3837 H11B        25.7640    28.3050    21.6540 H        35  POP29       0.0618
  3838 P           27.6500    30.5740    23.3900 P.3      35  POP29       0.2645
  3839 O13         28.9120    30.3130    24.0300 O.co2    35  POP29      -0.5105
  3840 O14         26.7980    31.5680    24.0620 O.co2    35  POP29      -0.5105
  3841 O12         26.8530    29.1640    23.2130 O.3      35  POP29      -0.3154
  3842 O11         28.0530    31.0370    21.9270 O.3      35  POP29      -0.3181
  3843 C1          28.9130    30.3020    21.1630 C.3      35  POP29       0.0845
  3844 HA          28.7960    29.2310    21.5020 H        35  POP29       0.0591
  3845 HB          29.9470    30.6120    21.4360 H        35  POP29       0.0591
  3846 C2          28.7270    30.4030    19.6290 C.3      35  POP29       0.1155
  3847 HS          29.4300    29.7320    19.2150 H        35  POP29       0.0649
  3848 O21         29.0090    31.6760    19.1740 O.3      35  POP29      -0.3072
  3849 C21         30.3210    31.9880    19.0230 C.2      35  POP29       0.2626
  3850 O22         31.2660    31.2910    19.2800 O.2      35  POP29      -0.2650
  3851 C22         30.5020    33.2730    18.0890 C.3      35  POP29       0.0332
  3852 H2R         30.9710    34.0570    18.7220 H        35  POP29       0.0366
  3853 H2S         29.4920    33.6130    17.7960 H        35  POP29       0.0366
  3854 C3          27.2770    29.9960    19.3130 C.3      35  POP29       0.0860
  3855 HX          26.5320    30.7190    19.6150 H        35  POP29       0.0593
  3856 HY          27.1080    29.1710    19.9400 H        35  POP29       0.0593
  3857 O31         27.1100    29.5450    17.9930 O.3      35  POP29      -0.3125
  3858 C31         26.9090    30.3910    17.0430 C.2      35  POP29       0.2622
  3859 O32         26.8490    31.6490    17.2080 O.2      35  POP29      -0.2650
  3860 C32         27.1480    29.5600    15.7940 C.3      35  POP29       0.0332
  3861 H2X         26.5800    28.5730    15.8510 H        35  POP29       0.0366
  3862 H2Y         28.2360    29.3860    15.8130 H        35  POP29       0.0366
  3863 C23         31.1350    33.0230    16.7110 C.3      35  POP29      -0.0441
  3864 H3R         32.2440    32.8590    16.7370 H        35  POP29       0.0270
  3865 H3S         30.9170    33.9880    16.1790 H        35  POP29       0.0270
  3866 C24         30.5450    31.9510    15.9330 C.3      35  POP29      -0.0526
  3867 H4R         29.4560    31.9480    15.8550 H        35  POP29       0.0265
  3868 H4S         30.8660    31.0210    16.4770 H        35  POP29       0.0265
  3869 C25         31.1080    31.9380    14.5600 C.3      35  POP29      -0.0530
  3870 H5R         32.2340    32.0740    14.4830 H        35  POP29       0.0265
  3871 H5S         30.6400    32.7140    13.8640 H        35  POP29       0.0265
  3872 C26         30.8400    30.6010    13.9080 C.3      35  POP29      -0.0528
  3873 H6R         29.7690    30.1310    14.0080 H        35  POP29       0.0265
  3874 H6S         31.4830    29.8260    14.3810 H        35  POP29       0.0265
  3875 C27         31.2020    30.4220    12.4440 C.3      35  POP29      -0.0496
  3876 H7R         31.9740    29.5990    12.4090 H        35  POP29       0.0268
  3877 H7S         31.7220    31.4140    12.1640 H        35  POP29       0.0268
  3878 C28         29.8570    30.0790    11.6680 C.3      35  POP29      -0.0348
  3879 H8R         29.0110    30.8840    11.7530 H        35  POP29       0.0307
  3880 H8S         29.6180    29.1000    12.0800 H        35  POP29       0.0307
  3881 C29         30.1480    29.8520    10.2180 C.2      35  POP29      -0.0879
  3882 H91         30.9660    29.1590    10.1140 H        35  POP29       0.0569
  3883 C210        29.6230    30.5290     9.2190 C.2      35  POP29      -0.0879
  3884 H101        29.7920    30.1270     8.1920 H        35  POP29       0.0569
  3885 C211        28.6190    31.5620     9.3150 C.3      35  POP29      -0.0348
  3886 H11R        28.9290    32.4640     9.9810 H        35  POP29       0.0307
  3887 H11S        27.7030    31.2030     9.7650 H        35  POP29       0.0307
  3888 C212        28.2350    32.1000     7.9130 C.3      35  POP29      -0.0496
  3889 H12R        29.1290    32.4110     7.3550 H        35  POP29       0.0268
  3890 H12S        27.7410    33.0800     7.9580 H        35  POP29       0.0268
  3891 C213        27.3030    31.1590     7.0170 C.3      35  POP29      -0.0528
  3892 H13R        26.2600    31.6160     7.1070 H        35  POP29       0.0265
  3893 H13S        27.2120    30.1370     7.5090 H        35  POP29       0.0265
  3894 C214        27.7930    31.0980     5.5580 C.3      35  POP29      -0.0530
  3895 H14R        28.6350    30.3560     5.4090 H        35  POP29       0.0265
  3896 H14S        28.2440    32.0210     5.1140 H        35  POP29       0.0265
  3897 C215        26.6660    30.7220     4.5350 C.3      35  POP29      -0.0531
  3898 H15R        27.1430    30.8430     3.4960 H        35  POP29       0.0265
  3899 H15S        25.9070    31.5430     4.5560 H        35  POP29       0.0265
  3900 C216        25.9340    29.4170     4.6860 C.3      35  POP29      -0.0533
  3901 H16R        25.0570    29.3260     3.9580 H        35  POP29       0.0265
  3902 H16S        25.4990    29.4340     5.7370 H        35  POP29       0.0265
  3903 C217        26.8450    28.1830     4.6220 C.3      35  POP29      -0.0559
  3904 H17R        27.7230    28.2100     5.3190 H        35  POP29       0.0263
  3905 H17S        27.2820    28.0880     3.5440 H        35  POP29       0.0263
  3906 C218        26.0610    26.8730     4.6620 C.3      35  POP29      -0.0653
  3907 H18R        25.3350    26.9960     3.9080 H        35  POP29       0.0230
  3908 H18S        25.6390    26.7880     5.7460 H        35  POP29       0.0230
  3909 H18T        26.7040    26.0380     4.3540 H        35  POP29       0.0230
  3910 C33         26.7060    30.2640    14.4500 C.3      35  POP29      -0.0441
  3911 H3X         27.0670    29.5930    13.6370 H        35  POP29       0.0270
  3912 H3Y         27.2240    31.2230    14.4970 H        35  POP29       0.0270
  3913 C34         25.2170    30.5620    14.4800 C.3      35  POP29      -0.0526
  3914 H4X         24.8040    31.0940    15.3900 H        35  POP29       0.0265
  3915 H4Y         24.6000    29.6240    14.3610 H        35  POP29       0.0265
  3916 C35         24.7960    31.4510    13.3010 C.3      35  POP29      -0.0530
  3917 H5X         25.4040    32.4310    13.3000 H        35  POP29       0.0265
  3918 H5Y         23.7710    31.6990    13.4520 H        35  POP29       0.0265
  3919 C36         24.7540    30.7350    11.9400 C.3      35  POP29      -0.0531
  3920 H6X         23.9590    29.9480    12.0510 H        35  POP29       0.0265
  3921 H6Y         25.6860    30.2900    11.6660 H        35  POP29       0.0265
  3922 C37         24.3470    31.5520    10.7140 C.3      35  POP29      -0.0531
  3923 H7X         25.0360    32.4180    10.6500 H        35  POP29       0.0265
  3924 H7Y         23.2970    31.9180    10.9530 H        35  POP29       0.0265
  3925 C38         24.3580    30.7850     9.4080 C.3      35  POP29      -0.0531
  3926 H8X         25.1940    30.0380     9.5360 H        35  POP29       0.0265
  3927 H8Y         24.4680    31.4120     8.5740 H        35  POP29       0.0265
  3928 C39         22.9730    30.1440     9.2340 C.3      35  POP29      -0.0531
  3929 H9X         22.2280    30.9310     8.9850 H        35  POP29       0.0265
  3930 H9Y         22.5680    29.6430    10.1690 H        35  POP29       0.0265
  3931 C310        23.0300    29.0630     8.1560 C.3      35  POP29      -0.0531
  3932 H10X        23.9430    28.4580     8.3060 H        35  POP29       0.0265
  3933 H10Y        23.1350    29.6120     7.1540 H        35  POP29       0.0265
  3934 C311        21.7700    28.1720     8.1700 C.3      35  POP29      -0.0531
  3935 H11X        21.0330    28.9470     8.0240 H        35  POP29       0.0265
  3936 H11Y        21.4930    27.5860     9.0820 H        35  POP29       0.0265
  3937 C312        21.7210    27.0340     7.1030 C.3      35  POP29      -0.0531
  3938 H12X        20.9170    26.3280     7.1790 H        35  POP29       0.0265
  3939 H12Y        22.6610    26.4080     7.2830 H        35  POP29       0.0265
  3940 C313        21.8670    27.4150     5.6360 C.3      35  POP29      -0.0531
  3941 H13X        22.6480    28.1800     5.5950 H        35  POP29       0.0265
  3942 H13Y        20.8530    27.8290     5.3050 H        35  POP29       0.0265
  3943 C314        22.2230    26.1780     4.8930 C.3      35  POP29      -0.0533
  3944 H14X        23.2130    25.7700     5.2540 H        35  POP29       0.0265
  3945 H14Y        22.4440    26.6070     3.8310 H        35  POP29       0.0265
  3946 C315        21.1060    25.2120     4.6250 C.3      35  POP29      -0.0559
  3947 H15X        21.1040    24.6190     5.5910 H        35  POP29       0.0263
  3948 H15Y        21.2600    24.6330     3.6750 H        35  POP29       0.0263
  3949 C316        19.7350    25.8660     4.4250 C.3      35  POP29      -0.0653
  3950 H16X        19.0210    25.0080     4.2030 H        35  POP29       0.0230
  3951 H16Y        19.6470    26.4710     3.5360 H        35  POP29       0.0230
  3952 H16Z        19.3360    26.3180     5.3270 H        35  POP29       0.0230
  3953 N           28.1170    13.5370    23.7430 N.3      36  POP30       0.2385
  3954 C12         28.4890    13.9170    22.2680 C.3      36  POP30      -0.0064
  3955 H12A        27.8760    13.4200    21.5360 H        36  POP30       0.0838
  3956 H12B        29.5640    13.5720    22.1260 H        36  POP30       0.0838
  3957 C13         28.6830    14.6700    24.6180 C.3      36  POP30      -0.0417
  3958 H13A        29.7000    14.9340    24.2820 H        36  POP30       0.0778
  3959 H13B        28.0070    15.5620    24.4790 H        36  POP30       0.0778
  3960 H13C        28.7200    14.4070    25.6400 H        36  POP30       0.0778
  3961 C14         26.7050    13.3290    23.8950 C.3      36  POP30      -0.0417
  3962 H14A        26.3590    13.3250    24.8990 H        36  POP30       0.0778
  3963 H14B        26.2670    14.1280    23.2980 H        36  POP30       0.0778
  3964 H14C        26.4380    12.4400    23.3720 H        36  POP30       0.0778
  3965 C15         28.8010    12.2230    23.9150 C.3      36  POP30      -0.0417
  3966 H15A        28.5400    11.5280    23.0930 H        36  POP30       0.0778
  3967 H15B        28.5650    11.7370    24.8180 H        36  POP30       0.0778
  3968 H15C        29.8570    12.3740    23.9550 H        36  POP30       0.0778
  3969 C11         28.2650    15.4270    21.9210 C.3      36  POP30       0.0954
  3970 H11A        28.3760    15.4920    20.8160 H        36  POP30       0.0618
  3971 H11B        29.0380    16.0960    22.3890 H        36  POP30       0.0618
  3972 P           26.5030    17.3240    22.0760 P.3      36  POP30       0.2645
  3973 O13         27.0560    18.1590    23.1510 O.co2    36  POP30      -0.5105
  3974 O14         25.0230    17.2890    21.8890 O.co2    36  POP30      -0.5105
  3975 O12         26.9360    15.8050    22.3680 O.3      36  POP30      -0.3154
  3976 O11         27.2480    17.6550    20.7780 O.3      36  POP30      -0.3181
  3977 C1          26.5940    18.3170    19.7450 C.3      36  POP30       0.0845
  3978 HA          27.3260    18.8940    19.0710 H        36  POP30       0.0591
  3979 HB          25.7710    19.0030    20.1410 H        36  POP30       0.0591
  3980 C2          25.9180    17.3280    18.7910 C.3      36  POP30       0.1155
  3981 HS          25.5370    16.3990    19.3140 H        36  POP30       0.0649
  3982 O21         26.8670    17.0230    17.7360 O.3      36  POP30      -0.3072
  3983 C21         26.6150    15.8490    17.1510 C.2      36  POP30       0.2626
  3984 O22         25.5940    15.1670    17.3300 O.2      36  POP30      -0.2650
  3985 C22         27.6430    15.5710    16.0520 C.3      36  POP30       0.0332
  3986 H2R         28.5870    15.1680    16.5220 H        36  POP30       0.0366
  3987 H2S         27.8310    16.5760    15.5920 H        36  POP30       0.0366
  3988 C3          24.6380    17.9610    18.1610 C.3      36  POP30       0.0860
  3989 HX          23.9740    18.1830    19.0370 H        36  POP30       0.0593
  3990 HY          24.0070    17.2160    17.5350 H        36  POP30       0.0593
  3991 O31         24.8780    19.1910    17.4470 O.3      36  POP30      -0.3125
  3992 C31         25.0120    18.9770    16.0970 C.2      36  POP30       0.2622
  3993 O32         24.8790    17.9710    15.5060 O.2      36  POP30      -0.2650
  3994 C32         25.6420    20.2350    15.4780 C.3      36  POP30       0.0332
  3995 H2X         26.0900    20.8650    16.2880 H        36  POP30       0.0366
  3996 H2Y         24.8610    20.8920    15.1400 H        36  POP30       0.0366
  3997 C23         27.0380    14.5980    15.0720 C.3      36  POP30      -0.0441
  3998 H3R         26.0040    14.9930    14.7550 H        36  POP30       0.0270
  3999 H3S         26.8510    13.5970    15.5870 H        36  POP30       0.0270
  4000 C24         28.0080    14.5270    13.8800 C.3      36  POP30      -0.0526
  4001 H4R         28.9120    13.9970    14.2280 H        36  POP30       0.0265
  4002 H4S         28.2010    15.5780    13.5610 H        36  POP30       0.0265
  4003 C25         27.5420    13.6940    12.6730 C.3      36  POP30      -0.0530
  4004 H5R         26.6910    12.9810    12.8030 H        36  POP30       0.0265
  4005 H5S         28.3780    13.0800    12.3570 H        36  POP30       0.0265
  4006 C26         27.1010    14.5390    11.5150 C.3      36  POP30      -0.0528
  4007 H6R         27.8550    15.3420    11.3470 H        36  POP30       0.0265
  4008 H6S         26.2100    14.9900    11.9680 H        36  POP30       0.0265
  4009 C27         26.8220    13.7840    10.1440 C.3      36  POP30      -0.0496
  4010 H7R         26.3200    14.5830     9.6110 H        36  POP30       0.0268
  4011 H7S         26.0140    13.0150    10.4810 H        36  POP30       0.0268
  4012 C28         28.0260    13.2740     9.3660 C.3      36  POP30      -0.0348
  4013 H8R         28.7200    12.6930    10.0400 H        36  POP30       0.0307
  4014 H8S         28.4920    14.1820     8.9990 H        36  POP30       0.0307
  4015 C29         27.5570    12.4370     8.3000 C.2      36  POP30      -0.0879
  4016 H91         27.1350    11.4350     8.5700 H        36  POP30       0.0569
  4017 C210        27.3940    12.7980     7.0330 C.2      36  POP30      -0.0879
  4018 H101        27.0810    12.0630     6.2780 H        36  POP30       0.0569
  4019 C211        27.9270    14.0480     6.4170 C.3      36  POP30      -0.0348
  4020 H11R        27.7130    14.9190     7.1340 H        36  POP30       0.0307
  4021 H11S        27.4350    14.2700     5.4260 H        36  POP30       0.0307
  4022 C212        29.4720    13.9570     6.1700 C.3      36  POP30      -0.0496
  4023 H12R        29.9510    13.6910     7.1900 H        36  POP30       0.0268
  4024 H12S        29.9900    14.9280     5.9690 H        36  POP30       0.0268
  4025 C213        29.9260    12.9530     5.0160 C.3      36  POP30      -0.0528
  4026 H13R        29.4050    13.2150     4.1730 H        36  POP30       0.0265
  4027 H13S        29.5890    11.9380     5.4270 H        36  POP30       0.0265
  4028 C214        31.4100    13.1380     4.7500 C.3      36  POP30      -0.0530
  4029 H14R        32.0560    13.0100     5.7200 H        36  POP30       0.0265
  4030 H14S        31.6210    14.1800     4.3750 H        36  POP30       0.0265
  4031 C215        31.9440    12.1970     3.6760 C.3      36  POP30      -0.0531
  4032 H15R        31.4860    11.1850     3.8200 H        36  POP30       0.0265
  4033 H15S        32.9720    12.1790     3.9740 H        36  POP30       0.0265
  4034 C216        31.8250    12.5880     2.1530 C.3      36  POP30      -0.0533
  4035 H16R        32.4470    13.4970     1.9320 H        36  POP30       0.0265
  4036 H16S        30.7800    12.7110     1.8570 H        36  POP30       0.0265
  4037 C217        32.3880    11.5310     1.2160 C.3      36  POP30      -0.0559
  4038 H17R        31.8900    11.5150     0.2770 H        36  POP30       0.0263
  4039 H17S        32.3140    10.5680     1.6280 H        36  POP30       0.0263
  4040 C218        33.8680    11.6430     0.9820 C.3      36  POP30      -0.0653
  4041 H18R        34.1750    10.8070     0.3120 H        36  POP30       0.0230
  4042 H18S        34.4500    11.6230     1.9300 H        36  POP30       0.0230
  4043 H18T        34.2380    12.6270     0.5550 H        36  POP30       0.0230
  4044 C33         26.6010    19.8840    14.3020 C.3      36  POP30      -0.0441
  4045 H3X         27.2590    19.0290    14.5250 H        36  POP30       0.0270
  4046 H3Y         27.2640    20.7470    14.2960 H        36  POP30       0.0270
  4047 C34         25.8940    19.8390    12.9540 C.3      36  POP30      -0.0526
  4048 H4X         25.7870    20.8550    12.6210 H        36  POP30       0.0265
  4049 H4Y         24.8680    19.4760    12.9100 H        36  POP30       0.0265
  4050 C35         26.8160    19.1640    11.9070 C.3      36  POP30      -0.0530
  4051 H5X         26.7950    18.1000    12.0930 H        36  POP30       0.0265
  4052 H5Y         27.8140    19.5710    11.9470 H        36  POP30       0.0265
  4053 C36         26.3360    19.4860    10.4850 C.3      36  POP30      -0.0531
  4054 H6X         26.0860    20.6320    10.3040 H        36  POP30       0.0265
  4055 H6Y         25.3060    19.0050    10.3970 H        36  POP30       0.0265
  4056 C37         27.2880    18.9100     9.4300 C.3      36  POP30      -0.0531
  4057 H7X         27.2290    17.8420     9.4720 H        36  POP30       0.0265
  4058 H7Y         28.2510    19.2280     9.5880 H        36  POP30       0.0265
  4059 C38         26.8860    19.1260     7.9340 C.3      36  POP30      -0.0531
  4060 H8X         26.8460    20.2340     7.5770 H        36  POP30       0.0265
  4061 H8Y         25.8630    18.6580     7.7230 H        36  POP30       0.0265
  4062 C39         27.7970    18.3010     6.9710 C.3      36  POP30      -0.0531
  4063 H9X         27.5340    17.2470     6.9290 H        36  POP30       0.0265
  4064 H9Y         28.9250    18.2730     7.2010 H        36  POP30       0.0265
  4065 C310        27.8150    18.8970     5.5610 C.3      36  POP30      -0.0531
  4066 H10X        28.2140    19.9530     5.5290 H        36  POP30       0.0265
  4067 H10Y        26.8100    19.0800     5.1730 H        36  POP30       0.0265
  4068 C311        28.6700    18.0290     4.5680 C.3      36  POP30      -0.0531
  4069 H11X        28.3520    16.9950     4.4760 H        36  POP30       0.0265
  4070 H11Y        29.6240    17.8680     5.1630 H        36  POP30       0.0265
  4071 C312        28.9930    18.6890     3.2660 C.3      36  POP30      -0.0531
  4072 H12X        29.6480    19.5790     3.5060 H        36  POP30       0.0265
  4073 H12Y        28.1400    19.0800     2.7780 H        36  POP30       0.0265
  4074 C313        29.7970    17.7710     2.3060 C.3      36  POP30      -0.0531
  4075 H13X        29.7980    18.2080     1.3110 H        36  POP30       0.0265
  4076 H13Y        29.1840    16.8220     2.2130 H        36  POP30       0.0265
  4077 C314        31.2500    17.5390     2.7240 C.3      36  POP30      -0.0533
  4078 H14X        31.2600    16.8130     3.5840 H        36  POP30       0.0265
  4079 H14Y        31.7070    18.4840     3.0810 H        36  POP30       0.0265
  4080 C315        32.2020    17.0760     1.6070 C.3      36  POP30      -0.0559
  4081 H15X        32.1550    17.9460     0.8220 H        36  POP30       0.0263
  4082 H15Y        31.8420    16.2210     1.0400 H        36  POP30       0.0263
  4083 C316        33.7120    16.9590     1.9410 C.3      36  POP30      -0.0653
  4084 H16X        34.1360    17.8230     2.4990 H        36  POP30       0.0230
  4085 H16Y        34.3020    16.6860     1.0680 H        36  POP30       0.0230
  4086 H16Z        33.8600    16.1830     2.6980 H        36  POP30       0.0230
  4087 N          -20.1140   -32.4770    21.5230 N.3      37  POP31       0.2385
  4088 C12        -20.3330   -31.8730    20.1360 C.3      37  POP31      -0.0064
  4089 H12A       -19.4870   -31.2510    19.8340 H        37  POP31       0.0838
  4090 H12B       -21.2340   -31.2300    20.1680 H        37  POP31       0.0838
  4091 C13        -19.6190   -31.3400    22.4310 C.3      37  POP31      -0.0417
  4092 H13A       -20.3760   -30.5600    22.6490 H        37  POP31       0.0778
  4093 H13B       -19.2360   -31.6510    23.3630 H        37  POP31       0.0778
  4094 H13C       -18.8420   -30.7760    21.8900 H        37  POP31       0.0778
  4095 C14        -21.2990   -33.1310    22.0740 C.3      37  POP31      -0.0417
  4096 H14A       -21.3960   -33.5380    23.0430 H        37  POP31       0.0778
  4097 H14B       -22.1850   -32.5350    22.1210 H        37  POP31       0.0778
  4098 H14C       -21.4780   -34.0370    21.5130 H        37  POP31       0.0778
  4099 C15        -18.9850   -33.4680    21.5070 C.3      37  POP31      -0.0417
  4100 H15A       -18.1550   -33.1120    20.9490 H        37  POP31       0.0778
  4101 H15B       -19.2060   -34.3530    20.9640 H        37  POP31       0.0778
  4102 H15C       -18.7550   -33.7870    22.5170 H        37  POP31       0.0778
  4103 C11        -20.4780   -32.9310    18.9770 C.3      37  POP31       0.0954
  4104 H11A       -19.6240   -33.6800    19.0340 H        37  POP31       0.0618
  4105 H11B       -20.4870   -32.3980    17.9750 H        37  POP31       0.0618
  4106 P          -23.0110   -32.8770    18.6440 P.3      37  POP31       0.2645
  4107 O13        -22.8060   -31.4990    18.3680 O.co2    37  POP31      -0.5105
  4108 O14        -24.0370   -33.2570    19.6720 O.co2    37  POP31      -0.5105
  4109 O12        -21.7600   -33.6410    19.1480 O.3      37  POP31      -0.3154
  4110 O11        -23.3750   -33.5710    17.2760 O.3      37  POP31      -0.3181
  4111 C1         -22.6180   -33.0070    16.1870 C.3      37  POP31       0.0845
  4112 HA         -21.4690   -33.1180    16.3070 H        37  POP31       0.0591
  4113 HB         -22.9620   -31.9670    15.9980 H        37  POP31       0.0591
  4114 C2         -22.9210   -33.8010    14.9090 C.3      37  POP31       0.1155
  4115 HS         -23.9510   -33.8970    14.8390 H        37  POP31       0.0649
  4116 O21        -22.2760   -35.0610    14.9440 O.3      37  POP31      -0.3072
  4117 C21        -22.7970   -36.0040    14.1400 C.2      37  POP31       0.2626
  4118 O22        -23.8920   -35.9100    13.6540 O.2      37  POP31      -0.2650
  4119 C22        -21.9030   -37.1710    13.9060 C.3      37  POP31       0.0332
  4120 H2R        -22.4530   -38.0250    13.4520 H        37  POP31       0.0366
  4121 H2S        -21.4800   -37.5540    14.8580 H        37  POP31       0.0366
  4122 C3         -22.3210   -33.0310    13.6960 C.3      37  POP31       0.0860
  4123 HX         -21.1930   -33.0820    13.8440 H        37  POP31       0.0593
  4124 HY         -22.5040   -31.9690    13.8180 H        37  POP31       0.0593
  4125 O31        -22.5750   -33.4870    12.3440 O.3      37  POP31      -0.3125
  4126 C31        -23.8140   -33.4520    11.8650 C.2      37  POP31       0.2622
  4127 O32        -24.7730   -32.9510    12.4620 O.2      37  POP31      -0.2650
  4128 C32        -23.7760   -34.2050    10.5060 C.3      37  POP31       0.0332
  4129 H2X        -23.6720   -35.2800    10.9050 H        37  POP31       0.0366
  4130 H2Y        -22.8450   -33.8270    10.0270 H        37  POP31       0.0366
  4131 C23        -20.5830   -37.1080    13.0120 C.3      37  POP31      -0.0441
  4132 H3R        -20.0620   -38.0130    12.8890 H        37  POP31       0.0270
  4133 H3S        -19.9100   -36.3010    13.4970 H        37  POP31       0.0270
  4134 C24        -20.8620   -36.5910    11.5440 C.3      37  POP31      -0.0526
  4135 H4R        -19.8140   -36.4980    11.0460 H        37  POP31       0.0265
  4136 H4S        -21.3340   -35.5850    11.5230 H        37  POP31       0.0265
  4137 C25        -21.7130   -37.5560    10.7330 C.3      37  POP31      -0.0530
  4138 H5R        -22.7130   -37.4850    11.2460 H        37  POP31       0.0265
  4139 H5S        -21.4500   -38.6700    10.8460 H        37  POP31       0.0265
  4140 C26        -21.6030   -37.2580     9.2640 C.3      37  POP31      -0.0528
  4141 H6R        -20.5720   -37.1440     8.9530 H        37  POP31       0.0265
  4142 H6S        -22.0770   -36.3450     8.9840 H        37  POP31       0.0265
  4143 C27        -22.2950   -38.3650     8.4710 C.3      37  POP31      -0.0496
  4144 H7R        -23.4380   -38.1420     8.5780 H        37  POP31       0.0268
  4145 H7S        -22.0230   -39.3390     8.8840 H        37  POP31       0.0268
  4146 C28        -21.9800   -38.3750     7.0200 C.3      37  POP31      -0.0348
  4147 H8R        -20.8780   -38.5860     6.8720 H        37  POP31       0.0307
  4148 H8S        -22.1160   -37.3290     6.5890 H        37  POP31       0.0307
  4149 C29        -22.7150   -39.4310     6.2510 C.2      37  POP31      -0.0879
  4150 H91        -23.0060   -40.3560     6.7570 H        37  POP31       0.0569
  4151 C210       -23.2170   -39.2650     5.0140 C.2      37  POP31      -0.0879
  4152 H101       -23.5600   -40.2100     4.4880 H        37  POP31       0.0569
  4153 C211       -23.0050   -38.1760     4.0940 C.3      37  POP31      -0.0348
  4154 H11R       -22.2650   -37.4520     4.4220 H        37  POP31       0.0307
  4155 H11S       -23.9380   -37.5160     3.9010 H        37  POP31       0.0307
  4156 C212       -22.5690   -38.7990     2.7470 C.3      37  POP31      -0.0496
  4157 H12R       -21.7200   -39.5120     2.9540 H        37  POP31       0.0268
  4158 H12S       -22.1930   -37.9500     2.0840 H        37  POP31       0.0268
  4159 C213       -23.7260   -39.6040     1.9420 C.3      37  POP31      -0.0528
  4160 H13R       -24.4890   -39.9340     2.6190 H        37  POP31       0.0265
  4161 H13S       -23.1120   -40.4210     1.4860 H        37  POP31       0.0265
  4162 C214       -24.2610   -38.7070     0.8330 C.3      37  POP31      -0.0530
  4163 H14R       -23.5790   -38.3550     0.0810 H        37  POP31       0.0265
  4164 H14S       -24.7650   -37.8540     1.3870 H        37  POP31       0.0265
  4165 C215       -25.4500   -39.4490     0.1870 C.3      37  POP31      -0.0531
  4166 H15R       -26.0040   -38.7080    -0.3930 H        37  POP31       0.0265
  4167 H15S       -26.2550   -39.8730     0.9190 H        37  POP31       0.0265
  4168 C216       -25.1740   -40.7160    -0.5640 C.3      37  POP31      -0.0533
  4169 H16R       -25.0980   -41.6010     0.1870 H        37  POP31       0.0265
  4170 H16S       -24.2780   -40.7030    -1.3060 H        37  POP31       0.0265
  4171 C217       -26.4040   -41.0640    -1.4890 C.3      37  POP31      -0.0559
  4172 H17R       -26.6910   -40.2640    -2.1740 H        37  POP31       0.0263
  4173 H17S       -27.2540   -41.1730    -0.8440 H        37  POP31       0.0263
  4174 C218       -26.2320   -42.2510    -2.4520 C.3      37  POP31      -0.0653
  4175 H18R       -26.2470   -43.2110    -1.9100 H        37  POP31       0.0230
  4176 H18S       -25.3260   -42.1300    -3.1390 H        37  POP31       0.0230
  4177 H18T       -27.1970   -42.2070    -3.0520 H        37  POP31       0.0230
  4178 C33        -25.0380   -33.9700     9.5910 C.3      37  POP31      -0.0441
  4179 H3X        -25.3050   -32.9000     9.5980 H        37  POP31       0.0270
  4180 H3Y        -25.8900   -34.5040     9.9360 H        37  POP31       0.0270
  4181 C34        -24.8320   -34.3020     8.1110 C.3      37  POP31      -0.0526
  4182 H4X        -25.6200   -34.0670     7.5090 H        37  POP31       0.0265
  4183 H4Y        -24.8550   -35.3780     8.0010 H        37  POP31       0.0265
  4184 C35        -23.4670   -33.8860     7.4560 C.3      37  POP31      -0.0530
  4185 H5X        -22.5740   -34.3980     7.9370 H        37  POP31       0.0265
  4186 H5Y        -23.2880   -32.7980     7.4150 H        37  POP31       0.0265
  4187 C36        -23.3700   -34.4680     6.0300 C.3      37  POP31      -0.0531
  4188 H6X        -23.7880   -35.5250     6.1240 H        37  POP31       0.0265
  4189 H6Y        -22.2830   -34.5500     5.7400 H        37  POP31       0.0265
  4190 C37        -24.1970   -33.6810     5.0140 C.3      37  POP31      -0.0531
  4191 H7X        -23.6360   -32.7130     4.7490 H        37  POP31       0.0265
  4192 H7Y        -25.1220   -33.2440     5.5510 H        37  POP31       0.0265
  4193 C38        -24.5830   -34.3160     3.6900 C.3      37  POP31      -0.0531
  4194 H8X        -25.1920   -35.2530     3.9320 H        37  POP31       0.0265
  4195 H8Y        -23.6150   -34.5230     3.1720 H        37  POP31       0.0265
  4196 C39        -25.4190   -33.4130     2.8460 C.3      37  POP31      -0.0531
  4197 H9X        -24.9390   -32.4580     2.5690 H        37  POP31       0.0265
  4198 H9Y        -26.3030   -33.1370     3.4130 H        37  POP31       0.0265
  4199 C310       -26.0620   -34.1410     1.6520 C.3      37  POP31      -0.0531
  4200 H10X       -26.3480   -33.2770     1.0340 H        37  POP31       0.0265
  4201 H10Y       -26.9900   -34.6210     1.8700 H        37  POP31       0.0265
  4202 C311       -25.1010   -35.0060     0.8710 C.3      37  POP31      -0.0531
  4203 H11X       -24.8940   -35.8860     1.4690 H        37  POP31       0.0265
  4204 H11Y       -24.0940   -34.4910     0.7260 H        37  POP31       0.0265
  4205 C312       -25.6030   -35.4540    -0.5000 C.3      37  POP31      -0.0531
  4206 H12X       -26.5370   -34.9240    -0.7430 H        37  POP31       0.0265
  4207 H12Y       -25.8030   -36.5020    -0.6600 H        37  POP31       0.0265
  4208 C313       -24.6110   -35.1070    -1.6710 C.3      37  POP31      -0.0531
  4209 H13X       -23.6720   -35.7020    -1.6170 H        37  POP31       0.0265
  4210 H13Y       -24.3380   -34.0210    -1.4770 H        37  POP31       0.0265
  4211 C314       -25.2970   -35.3960    -3.0500 C.3      37  POP31      -0.0533
  4212 H14X       -26.4420   -35.1790    -3.0810 H        37  POP31       0.0265
  4213 H14Y       -25.2920   -36.4730    -3.2490 H        37  POP31       0.0265
  4214 C315       -24.6450   -34.6530    -4.2270 C.3      37  POP31      -0.0559
  4215 H15X       -23.8060   -35.2590    -4.6530 H        37  POP31       0.0263
  4216 H15Y       -24.2280   -33.7190    -3.8630 H        37  POP31       0.0263
  4217 C316       -25.6300   -34.2490    -5.3250 C.3      37  POP31      -0.0653
  4218 H16X       -25.1680   -33.5840    -6.0950 H        37  POP31       0.0230
  4219 H16Y       -26.4470   -33.6890    -4.9020 H        37  POP31       0.0230
  4220 H16Z       -26.0070   -35.1150    -5.8590 H        37  POP31       0.0230
  4221 N          -18.9810   -15.2240    19.9840 N.3      38  POP32       0.2385
  4222 C12        -20.0710   -14.1220    19.9430 C.3      38  POP32      -0.0064
  4223 H12A       -20.7560   -14.3020    19.1340 H        38  POP32       0.0838
  4224 H12B       -19.6080   -13.2040    19.7420 H        38  POP32       0.0838
  4225 C13        -18.4430   -15.5790    18.6820 C.3      38  POP32      -0.0417
  4226 H13A       -17.9930   -14.6800    18.1710 H        38  POP32       0.0778
  4227 H13B       -17.7510   -16.4060    18.6410 H        38  POP32       0.0778
  4228 H13C       -19.2420   -15.9090    18.0890 H        38  POP32       0.0778
  4229 C14        -17.8900   -14.8200    20.8290 C.3      38  POP32      -0.0417
  4230 H14A       -17.1460   -15.6150    21.0610 H        38  POP32       0.0778
  4231 H14B       -17.3700   -13.9900    20.4470 H        38  POP32       0.0778
  4232 H14C       -18.2920   -14.4430    21.7370 H        38  POP32       0.0778
  4233 C15        -19.6290   -16.5130    20.5180 C.3      38  POP32      -0.0417
  4234 H15A       -18.9230   -17.3520    20.4190 H        38  POP32       0.0778
  4235 H15B       -20.5040   -16.7610    19.9530 H        38  POP32       0.0778
  4236 H15C       -19.8730   -16.4130    21.5880 H        38  POP32       0.0778
  4237 C11        -20.9260   -13.9250    21.2630 C.3      38  POP32       0.0954
  4238 H11A       -21.5570   -14.8770    21.5010 H        38  POP32       0.0618
  4239 H11B       -21.7470   -13.1000    21.0660 H        38  POP32       0.0618
  4240 P          -19.6670   -12.0310    22.6630 P.3      38  POP32       0.2645
  4241 O13        -18.8250   -12.0290    23.9410 O.co2    38  POP32      -0.5105
  4242 O14        -20.8590   -11.1230    22.7220 O.co2    38  POP32      -0.5105
  4243 O12        -20.1300   -13.6220    22.4210 O.3      38  POP32      -0.3154
  4244 O11        -18.7430   -11.8170    21.4020 O.3      38  POP32      -0.3181
  4245 C1         -17.6740   -10.9040    21.2990 C.3      38  POP32       0.0845
  4246 HA         -16.9410   -11.1040    20.4300 H        38  POP32       0.0591
  4247 HB         -17.0240   -10.8510    22.2320 H        38  POP32       0.0591
  4248 C2         -18.1520    -9.4100    21.0180 C.3      38  POP32       0.1155
  4249 HS         -18.6140    -8.9640    21.9650 H        38  POP32       0.0649
  4250 O21        -19.1440    -9.3090    20.0520 O.3      38  POP32      -0.3072
  4251 C21        -19.7860    -8.1920    19.8810 C.2      38  POP32       0.2626
  4252 O22        -19.7220    -7.2310    20.6460 O.2      38  POP32      -0.2650
  4253 C22        -20.7690    -8.3670    18.7360 C.3      38  POP32       0.0332
  4254 H2R        -21.7230    -8.0480    18.9940 H        38  POP32       0.0366
  4255 H2S        -20.8900    -9.4930    18.5470 H        38  POP32       0.0366
  4256 C3         -16.9740    -8.5270    20.6400 C.3      38  POP32       0.0860
  4257 HX         -16.1650    -8.6690    21.3920 H        38  POP32       0.0593
  4258 HY         -17.3010    -7.5010    20.7100 H        38  POP32       0.0593
  4259 O31        -16.4180    -8.7760    19.3230 O.3      38  POP32      -0.3125
  4260 C31        -15.6850    -7.7860    18.8280 C.2      38  POP32       0.2622
  4261 O32        -15.4990    -6.6750    19.3450 O.2      38  POP32      -0.2650
  4262 C32        -14.9100    -8.2990    17.6130 C.3      38  POP32       0.0332
  4263 H2X        -14.4870    -9.2560    17.9840 H        38  POP32       0.0366
  4264 H2Y        -14.0760    -7.6520    17.3680 H        38  POP32       0.0366
  4265 C23        -20.1170    -7.7460    17.4830 C.3      38  POP32      -0.0441
  4266 H3R        -19.1350    -8.2040    17.2490 H        38  POP32       0.0270
  4267 H3S        -19.9790    -6.6290    17.7240 H        38  POP32       0.0270
  4268 C24        -21.1640    -7.8780    16.3010 C.3      38  POP32      -0.0526
  4269 H4R        -22.0210    -7.2370    16.5250 H        38  POP32       0.0265
  4270 H4S        -21.5510    -8.9580    16.1660 H        38  POP32       0.0265
  4271 C25        -20.5430    -7.5320    14.9400 C.3      38  POP32      -0.0530
  4272 H5R        -19.7640    -8.2140    14.7560 H        38  POP32       0.0265
  4273 H5S        -20.2220    -6.4520    14.9750 H        38  POP32       0.0265
  4274 C26        -21.5690    -7.7140    13.7730 C.3      38  POP32      -0.0528
  4275 H6R        -22.4640    -6.9240    13.7470 H        38  POP32       0.0265
  4276 H6S        -21.9600    -8.6900    13.9660 H        38  POP32       0.0265
  4277 C27        -20.8200    -7.8650    12.4380 C.3      38  POP32      -0.0496
  4278 H7R        -21.4410    -8.4810    11.8030 H        38  POP32       0.0268
  4279 H7S        -19.8830    -8.3990    12.5790 H        38  POP32       0.0268
  4280 C28        -20.5500    -6.4630    11.7730 C.3      38  POP32      -0.0348
  4281 H8R        -19.5880    -6.5440    11.2040 H        38  POP32       0.0307
  4282 H8S        -20.2920    -5.8650    12.7040 H        38  POP32       0.0307
  4283 C29        -21.5080    -5.7430    10.9530 C.2      38  POP32      -0.0879
  4284 H91        -22.3140    -5.2280    11.5200 H        38  POP32       0.0569
  4285 C210       -21.6830    -5.8730     9.6410 C.2      38  POP32      -0.0879
  4286 H101       -22.5650    -5.4210     9.2380 H        38  POP32       0.0569
  4287 C211       -20.6930    -6.6160     8.7700 C.3      38  POP32      -0.0348
  4288 H11R       -20.7090    -7.7230     8.9990 H        38  POP32       0.0307
  4289 H11S       -19.6340    -6.1940     8.8060 H        38  POP32       0.0307
  4290 C212       -20.9420    -6.4030     7.2950 C.3      38  POP32      -0.0496
  4291 H12R       -21.9010    -6.8590     6.9850 H        38  POP32       0.0268
  4292 H12S       -20.0840    -6.7350     6.6660 H        38  POP32       0.0268
  4293 C213       -21.1610    -4.8910     6.8960 C.3      38  POP32      -0.0528
  4294 H13R       -20.5900    -4.2880     7.6940 H        38  POP32       0.0265
  4295 H13S       -22.2820    -4.6490     7.0600 H        38  POP32       0.0265
  4296 C214       -20.7560    -4.4860     5.4380 C.3      38  POP32      -0.0530
  4297 H14R       -21.3880    -5.2210     4.8170 H        38  POP32       0.0265
  4298 H14S       -19.6280    -4.6880     5.2290 H        38  POP32       0.0265
  4299 C215       -21.1370    -3.0950     4.9940 C.3      38  POP32      -0.0531
  4300 H15R       -20.7810    -2.2970     5.6740 H        38  POP32       0.0265
  4301 H15S       -22.2700    -3.0710     4.9980 H        38  POP32       0.0265
  4302 C216       -20.5970    -2.6960     3.5840 C.3      38  POP32      -0.0533
  4303 H16R       -20.9320    -3.3230     2.7710 H        38  POP32       0.0265
  4304 H16S       -19.4970    -2.7370     3.5260 H        38  POP32       0.0265
  4305 C217       -20.8470    -1.2380     3.2480 C.3      38  POP32      -0.0559
  4306 H17R       -20.1600    -0.5200     3.8240 H        38  POP32       0.0263
  4307 H17S       -21.8730    -0.8680     3.4640 H        38  POP32       0.0263
  4308 C218       -20.5660    -0.8970     1.7470 C.3      38  POP32      -0.0653
  4309 H18R       -21.2960    -1.4250     1.0580 H        38  POP32       0.0230
  4310 H18S       -19.5510    -1.0900     1.4170 H        38  POP32       0.0230
  4311 H18T       -20.6000     0.2190     1.4960 H        38  POP32       0.0230
  4312 C33        -15.5760    -8.5360    16.2350 C.3      38  POP32      -0.0441
  4313 H3X        -15.0050    -8.0780    15.4210 H        38  POP32       0.0270
  4314 H3Y        -16.6020    -8.0280    16.1560 H        38  POP32       0.0270
  4315 C34        -15.8010   -10.0700    15.9850 C.3      38  POP32      -0.0526
  4316 H4X        -16.2340   -10.6100    16.8150 H        38  POP32       0.0265
  4317 H4Y        -14.8240   -10.5760    15.6900 H        38  POP32       0.0265
  4318 C35        -16.8220   -10.4230    14.8050 C.3      38  POP32      -0.0530
  4319 H5X        -17.8510   -10.1080    15.1070 H        38  POP32       0.0265
  4320 H5Y        -16.9520   -11.5450    14.5740 H        38  POP32       0.0265
  4321 C36        -16.5520    -9.5510    13.5180 C.3      38  POP32      -0.0531
  4322 H6X        -15.4740    -9.6260    13.0540 H        38  POP32       0.0265
  4323 H6Y        -16.7550    -8.5090    13.6150 H        38  POP32       0.0265
  4324 C37        -17.4050   -10.0890    12.3950 C.3      38  POP32      -0.0531
  4325 H7X        -18.5190    -9.9300    12.4780 H        38  POP32       0.0265
  4326 H7Y        -17.1830   -11.1650    12.2890 H        38  POP32       0.0265
  4327 C38        -17.0690    -9.4010    11.1140 C.3      38  POP32      -0.0531
  4328 H8X        -16.0510    -9.6390    10.7850 H        38  POP32       0.0265
  4329 H8Y        -17.0700    -8.3930    11.5390 H        38  POP32       0.0265
  4330 C39        -18.0140    -9.6150     9.9520 C.3      38  POP32      -0.0531
  4331 H9X        -17.7820    -8.8920     9.1630 H        38  POP32       0.0265
  4332 H9Y        -19.0180    -9.2490    10.3550 H        38  POP32       0.0265
  4333 C310       -17.9470   -11.0360     9.4020 C.3      38  POP32      -0.0531
  4334 H10X       -18.5930   -11.7360     9.9060 H        38  POP32       0.0265
  4335 H10Y       -16.8840   -11.4280     9.4720 H        38  POP32       0.0265
  4336 C311       -18.4870   -11.1440     7.9470 C.3      38  POP32      -0.0531
  4337 H11X       -18.4590   -12.1780     7.6210 H        38  POP32       0.0265
  4338 H11Y       -17.7690   -10.5470     7.2730 H        38  POP32       0.0265
  4339 C312       -19.8670   -10.5620     7.7940 C.3      38  POP32      -0.0531
  4340 H12X       -19.8680    -9.4800     8.0870 H        38  POP32       0.0265
  4341 H12Y       -20.5370   -11.1080     8.4490 H        38  POP32       0.0265
  4342 C313       -20.4600   -10.6350     6.3700 C.3      38  POP32      -0.0531
  4343 H13X       -21.3980    -9.9730     6.4000 H        38  POP32       0.0265
  4344 H13Y       -20.7940   -11.6870     6.1660 H        38  POP32       0.0265
  4345 C314       -19.4320   -10.1960     5.3330 C.3      38  POP32      -0.0533
  4346 H14X       -18.5950   -10.9190     5.3620 H        38  POP32       0.0265
  4347 H14Y       -19.0280    -9.1550     5.5750 H        38  POP32       0.0265
  4348 C315       -19.9980   -10.2050     3.8920 C.3      38  POP32      -0.0559
  4349 H15X       -20.5720   -11.1820     3.7480 H        38  POP32       0.0263
  4350 H15Y       -19.1370   -10.2290     3.1620 H        38  POP32       0.0263
  4351 C316       -20.8690    -9.0010     3.4950 C.3      38  POP32      -0.0653
  4352 H16X       -21.5130    -8.7590     4.4110 H        38  POP32       0.0230
  4353 H16Y       -21.5010    -9.2520     2.6110 H        38  POP32       0.0230
  4354 H16Z       -20.1620    -8.1910     3.2480 H        38  POP32       0.0230
  4355 N            0.0560     2.2510    26.5550 N.3      39  POP33       0.2385
  4356 C12         -1.3050     2.0370    25.9210 C.3      39  POP33      -0.0064
  4357 H12A        -1.8970     2.8910    25.8820 H        39  POP33       0.0838
  4358 H12B        -1.9080     1.3880    26.5740 H        39  POP33       0.0838
  4359 C13          0.9770     3.2980    25.9140 C.3      39  POP33      -0.0417
  4360 H13A         1.1860     3.0580    24.8630 H        39  POP33       0.0778
  4361 H13B         0.5150     4.3260    25.9030 H        39  POP33       0.0778
  4362 H13C         1.8870     3.3350    26.4160 H        39  POP33       0.0778
  4363 C14          0.0070     2.5870    28.0470 C.3      39  POP33      -0.0417
  4364 H14A        -0.2730     3.6820    28.0310 H        39  POP33       0.0778
  4365 H14B        -0.7600     1.9960    28.5320 H        39  POP33       0.0778
  4366 H14C         0.9720     2.4230    28.4580 H        39  POP33       0.0778
  4367 C15          0.6830     0.8520    26.5210 C.3      39  POP33      -0.0417
  4368 H15A         1.7010     0.9060    26.9430 H        39  POP33       0.0778
  4369 H15B         0.8480     0.5370    25.4660 H        39  POP33       0.0778
  4370 H15C         0.0270     0.1400    26.9750 H        39  POP33       0.0778
  4371 C11         -1.2930     1.4660    24.4770 C.3      39  POP33       0.0954
  4372 H11A        -0.4430     1.9490    23.9410 H        39  POP33       0.0618
  4373 H11B        -2.1960     1.7940    23.8600 H        39  POP33       0.0618
  4374 P           -2.3740    -0.8890    24.4820 P.3      39  POP33       0.2645
  4375 O13         -3.0010    -0.6670    25.8080 O.co2    39  POP33      -0.5105
  4376 O14         -1.9220    -2.2590    24.1600 O.co2    39  POP33      -0.5105
  4377 O12         -1.1140     0.0720    24.3990 O.3      39  POP33      -0.3154
  4378 O11         -3.4090    -0.3560    23.4370 O.3      39  POP33      -0.3181
  4379 C1          -3.1480    -0.3120    22.0600 C.3      39  POP33       0.0845
  4380 HA          -2.0090    -0.2340    21.8410 H        39  POP33       0.0591
  4381 HB          -3.6650     0.6350    21.7530 H        39  POP33       0.0591
  4382 C2          -3.8570    -1.4670    21.2310 C.3      39  POP33       0.1155
  4383 HS          -4.8620    -1.5320    21.7910 H        39  POP33       0.0649
  4384 O21         -3.0860    -2.6390    21.3600 O.3      39  POP33      -0.3072
  4385 C21         -3.7230    -3.7960    21.0800 C.2      39  POP33       0.2626
  4386 O22         -4.9460    -3.8970    20.9820 O.2      39  POP33      -0.2650
  4387 C22         -2.8040    -4.9280    21.0650 C.3      39  POP33       0.0332
  4388 H2R         -3.1050    -5.7100    21.8270 H        39  POP33       0.0366
  4389 H2S         -1.7270    -4.6130    21.2640 H        39  POP33       0.0366
  4390 C3          -4.0600    -1.2300    19.7330 C.3      39  POP33       0.0860
  4391 HX          -4.8630    -0.4920    19.8120 H        39  POP33       0.0593
  4392 HY          -4.4540    -2.1650    19.2670 H        39  POP33       0.0593
  4393 O31         -2.8390    -0.7420    19.1370 O.3      39  POP33      -0.3125
  4394 C31         -2.7340    -1.1230    17.8070 C.2      39  POP33       0.2622
  4395 O32         -3.6750    -1.5750    17.1820 O.2      39  POP33      -0.2650
  4396 C32         -1.3360    -1.0300    17.2920 C.3      39  POP33       0.0332
  4397 H2X         -0.8490    -2.0020    17.6150 H        39  POP33       0.0366
  4398 H2Y         -0.8070    -0.1470    17.7610 H        39  POP33       0.0366
  4399 C23         -2.7960    -5.6350    19.7160 C.3      39  POP33      -0.0441
  4400 H3R         -3.8160    -5.9750    19.4790 H        39  POP33       0.0270
  4401 H3S         -2.1590    -6.5550    19.8000 H        39  POP33       0.0270
  4402 C24         -2.2970    -4.8670    18.5070 C.3      39  POP33      -0.0526
  4403 H4R         -1.1820    -4.6000    18.5130 H        39  POP33       0.0265
  4404 H4S         -2.9040    -3.9720    18.4220 H        39  POP33       0.0265
  4405 C25         -2.3380    -5.6320    17.1540 C.3      39  POP33      -0.0530
  4406 H5R         -3.4030    -5.9800    17.0140 H        39  POP33       0.0265
  4407 H5S         -1.7790    -6.6290    17.3390 H        39  POP33       0.0265
  4408 C26         -1.6540    -4.9220    15.9290 C.3      39  POP33      -0.0528
  4409 H6R         -0.6040    -4.5600    16.1940 H        39  POP33       0.0265
  4410 H6S         -2.1550    -3.9660    15.6020 H        39  POP33       0.0265
  4411 C27         -1.6960    -5.8140    14.6650 C.3      39  POP33      -0.0496
  4412 H7R         -2.6800    -6.1610    14.4360 H        39  POP33       0.0268
  4413 H7S         -1.1050    -6.7010    14.7810 H        39  POP33       0.0268
  4414 C28         -1.3380    -5.0550    13.3990 C.3      39  POP33      -0.0348
  4415 H8R         -2.1890    -4.4980    12.9770 H        39  POP33       0.0307
  4416 H8S         -1.1850    -5.9840    12.7200 H        39  POP33       0.0307
  4417 C29         -0.0860    -4.2120    13.5340 C.2      39  POP33      -0.0879
  4418 H91         -0.2280    -3.3990    14.2070 H        39  POP33       0.0569
  4419 C210         1.0850    -4.3540    12.8140 C.2      39  POP33      -0.0879
  4420 H101         1.9590    -3.7100    13.0280 H        39  POP33       0.0569
  4421 C211         1.4030    -5.4020    11.7830 C.3      39  POP33      -0.0348
  4422 H11R         1.0250    -6.3500    12.0610 H        39  POP33       0.0307
  4423 H11S         2.4480    -5.5850    11.7400 H        39  POP33       0.0307
  4424 C212         0.9030    -5.0200    10.2870 C.3      39  POP33      -0.0496
  4425 H12R         1.5330    -4.1680     9.9500 H        39  POP33       0.0268
  4426 H12S        -0.1590    -4.6580    10.3090 H        39  POP33       0.0268
  4427 C213         1.0820    -6.1230     9.2980 C.3      39  POP33      -0.0528
  4428 H13R         2.1980    -6.5200     9.3760 H        39  POP33       0.0265
  4429 H13S         0.8530    -5.7740     8.2680 H        39  POP33       0.0265
  4430 C214         0.1100    -7.3100     9.5910 C.3      39  POP33      -0.0530
  4431 H14R        -0.9320    -7.0650     9.7080 H        39  POP33       0.0265
  4432 H14S         0.5500    -7.8110    10.4910 H        39  POP33       0.0265
  4433 C215         0.0800    -8.4100     8.4400 C.3      39  POP33      -0.0531
  4434 H15R        -0.2580    -7.8800     7.5330 H        39  POP33       0.0265
  4435 H15S        -0.5750    -9.2820     8.6710 H        39  POP33       0.0265
  4436 C216         1.4380    -9.0490     8.0770 C.3      39  POP33      -0.0533
  4437 H16R         1.7160    -9.7330     8.8850 H        39  POP33       0.0265
  4438 H16S         2.2080    -8.2410     7.9250 H        39  POP33       0.0265
  4439 C217         1.5100    -9.7070     6.7020 C.3      39  POP33      -0.0559
  4440 H17R         2.4720   -10.2360     6.5260 H        39  POP33       0.0263
  4441 H17S         1.4400    -8.9090     5.9250 H        39  POP33       0.0263
  4442 C218         0.2680   -10.5460     6.5580 C.3      39  POP33      -0.0653
  4443 H18R         0.3260   -11.4420     7.2500 H        39  POP33       0.0230
  4444 H18S         0.1770   -11.0990     5.5850 H        39  POP33       0.0230
  4445 H18T        -0.6400    -9.9090     6.7190 H        39  POP33       0.0230
  4446 C33         -1.2190    -0.7260    15.7880 C.3      39  POP33      -0.0441
  4447 H3X         -1.7150     0.2930    15.6000 H        39  POP33       0.0270
  4448 H3Y         -1.5790    -1.5730    15.1090 H        39  POP33       0.0270
  4449 C34          0.2170    -0.3480    15.4580 C.3      39  POP33      -0.0526
  4450 H4X          0.8990    -1.2010    15.5310 H        39  POP33       0.0265
  4451 H4Y          0.5420     0.4560    16.2000 H        39  POP33       0.0265
  4452 C35          0.3940     0.3010    14.0750 C.3      39  POP33      -0.0530
  4453 H5X          1.4650     0.4480    14.0640 H        39  POP33       0.0265
  4454 H5Y         -0.1630     1.2630    13.9910 H        39  POP33       0.0265
  4455 C36          0.0750    -0.5740    12.8450 C.3      39  POP33      -0.0531
  4456 H6X         -1.0090    -0.5520    12.6330 H        39  POP33       0.0265
  4457 H6Y          0.3680    -1.5260    13.0650 H        39  POP33       0.0265
  4458 C37          0.7960    -0.1820    11.5470 C.3      39  POP33      -0.0531
  4459 H7X          0.3620    -0.8530    10.7490 H        39  POP33       0.0265
  4460 H7Y          1.8780    -0.4320    11.7890 H        39  POP33       0.0265
  4461 C38          0.5870     1.2730    11.1900 C.3      39  POP33      -0.0531
  4462 H8X          0.9380     2.0280    11.8560 H        39  POP33       0.0265
  4463 H8Y         -0.5410     1.3920    11.0920 H        39  POP33       0.0265
  4464 C39          1.2720     1.5990     9.8760 C.3      39  POP33      -0.0531
  4465 H9X          1.2170     0.7720     9.1650 H        39  POP33       0.0265
  4466 H9Y          2.3380     1.7240     9.9930 H        39  POP33       0.0265
  4467 C310         0.4950     2.7660     9.2060 C.3      39  POP33      -0.0531
  4468 H10X         0.4940     3.5640     9.9950 H        39  POP33       0.0265
  4469 H10Y        -0.5290     2.5130     8.9720 H        39  POP33       0.0265
  4470 C311         1.2250     3.2470     7.9220 C.3      39  POP33      -0.0531
  4471 H11X         1.1910     2.3210     7.2260 H        39  POP33       0.0265
  4472 H11Y         2.2780     3.4770     8.2110 H        39  POP33       0.0265
  4473 C312         0.4290     4.3720     7.2650 C.3      39  POP33      -0.0531
  4474 H12X         0.2400     5.1530     8.0770 H        39  POP33       0.0265
  4475 H12Y        -0.5310     4.0380     6.8690 H        39  POP33       0.0265
  4476 C313         1.2360     5.1870     6.2530 C.3      39  POP33      -0.0531
  4477 H13X         2.0910     5.5790     6.8640 H        39  POP33       0.0265
  4478 H13Y         0.6440     6.0220     5.8890 H        39  POP33       0.0265
  4479 C314         1.9060     4.2220     5.2010 C.3      39  POP33      -0.0533
  4480 H14X         1.0990     3.6690     4.8380 H        39  POP33       0.0265
  4481 H14Y         2.7040     3.6300     5.7720 H        39  POP33       0.0265
  4482 C315         2.6210     4.8990     4.0170 C.3      39  POP33      -0.0559
  4483 H15X         1.9010     5.1970     3.2400 H        39  POP33       0.0263
  4484 H15Y         3.3410     4.1920     3.5180 H        39  POP33       0.0263
  4485 C316         3.4010     6.1430     4.4040 C.3      39  POP33      -0.0653
  4486 H16X         4.1110     5.8220     5.1900 H        39  POP33       0.0230
  4487 H16Y         2.6870     6.9950     4.6930 H        39  POP33       0.0230
  4488 H16Z         3.9270     6.5770     3.5260 H        39  POP33       0.0230
  4489 N           -2.3750    12.6150    24.6390 N.3      40  POP34       0.2385
  4490 C12         -1.0960    12.4510    23.8030 C.3      40  POP34      -0.0064
  4491 H12A        -1.4330    12.4350    22.7160 H        40  POP34       0.0838
  4492 H12B        -0.6340    11.4930    23.9630 H        40  POP34       0.0838
  4493 C13         -2.0500    12.4620    26.1060 C.3      40  POP34      -0.0417
  4494 H13A        -2.9300    12.3250    26.7020 H        40  POP34       0.0778
  4495 H13B        -1.5150    11.5660    26.3790 H        40  POP34       0.0778
  4496 H13C        -1.4830    13.2970    26.4620 H        40  POP34       0.0778
  4497 C14         -3.0060    13.9480    24.4230 C.3      40  POP34      -0.0417
  4498 H14A        -3.6180    13.9230    23.5490 H        40  POP34       0.0778
  4499 H14B        -3.5800    14.3120    25.2370 H        40  POP34       0.0778
  4500 H14C        -2.3110    14.7780    24.2260 H        40  POP34       0.0778
  4501 C15         -3.3460    11.5120    24.2480 C.3      40  POP34      -0.0417
  4502 H15A        -3.6480    11.6910    23.2110 H        40  POP34       0.0778
  4503 H15B        -4.2640    11.5790    24.7990 H        40  POP34       0.0778
  4504 H15C        -2.9320    10.5560    24.3560 H        40  POP34       0.0778
  4505 C11          0.0190    13.5650    23.8270 C.3      40  POP34       0.0954
  4506 H11A         1.0160    13.2380    23.2940 H        40  POP34       0.0618
  4507 H11B         0.1930    13.7780    24.8810 H        40  POP34       0.0618
  4508 P           -0.5440    14.9910    21.6780 P.3      40  POP34       0.2645
  4509 O13          0.8660    14.7860    21.2340 O.co2    40  POP34      -0.5105
  4510 O14         -1.2430    16.2870    21.4640 O.co2    40  POP34      -0.5105
  4511 O12         -0.5250    14.7080    23.1830 O.3      40  POP34      -0.3154
  4512 O11         -1.4880    13.9570    21.0820 O.3      40  POP34      -0.3181
  4513 C1          -1.3530    12.7490    20.4230 C.3      40  POP34       0.0845
  4514 HA          -2.1140    11.9770    20.6930 H        40  POP34       0.0591
  4515 HB          -0.2980    12.3930    20.5870 H        40  POP34       0.0591
  4516 C2          -1.4850    13.0010    18.9060 C.3      40  POP34       0.1155
  4517 HS          -0.8210    13.8440    18.5730 H        40  POP34       0.0649
  4518 O21         -2.8750    13.1960    18.6160 O.3      40  POP34      -0.3072
  4519 C21         -3.1920    14.2780    17.8940 C.2      40  POP34       0.2626
  4520 O22         -2.3510    15.1330    17.6180 O.2      40  POP34      -0.2650
  4521 C22         -4.6330    14.3150    17.6200 C.3      40  POP34       0.0332
  4522 H2R         -5.0690    15.0610    18.2070 H        40  POP34       0.0366
  4523 H2S         -4.9920    13.2970    17.7920 H        40  POP34       0.0366
  4524 C3          -0.9900    11.7620    18.1000 C.3      40  POP34       0.0860
  4525 HX          -1.5350    10.8110    18.4860 H        40  POP34       0.0593
  4526 HY           0.0450    11.6030    18.4330 H        40  POP34       0.0593
  4527 O31         -1.0790    11.8090    16.6870 O.3      40  POP34      -0.3125
  4528 C31         -0.1210    12.5610    16.0700 C.2      40  POP34       0.2622
  4529 O32          0.7080    13.2450    16.6580 O.2      40  POP34      -0.2650
  4530 C32         -0.4190    12.6700    14.5200 C.3      40  POP34       0.0332
  4531 H2X         -1.4250    13.0840    14.3660 H        40  POP34       0.0366
  4532 H2Y         -0.4000    11.6530    14.0550 H        40  POP34       0.0366
  4533 C23         -5.0720    14.6470    16.1690 C.3      40  POP34      -0.0441
  4534 H3R         -4.7510    13.8380    15.5330 H        40  POP34       0.0270
  4535 H3S         -4.6290    15.6310    15.9340 H        40  POP34       0.0270
  4536 C24         -6.5190    14.8180    15.9170 C.3      40  POP34      -0.0526
  4537 H4R         -7.0020    15.6120    16.5040 H        40  POP34       0.0265
  4538 H4S         -7.1160    13.9140    16.3020 H        40  POP34       0.0265
  4539 C25         -6.8400    14.9500    14.4620 C.3      40  POP34      -0.0530
  4540 H5R         -7.9620    14.7520    14.3190 H        40  POP34       0.0265
  4541 H5S         -6.2480    14.2290    13.9030 H        40  POP34       0.0265
  4542 C26         -6.5560    16.3460    14.0070 C.3      40  POP34      -0.0528
  4543 H6R         -5.4550    16.5050    13.9180 H        40  POP34       0.0265
  4544 H6S         -6.8790    16.9710    14.7970 H        40  POP34       0.0265
  4545 C27         -7.2880    16.8270    12.7500 C.3      40  POP34      -0.0496
  4546 H7R         -8.3320    16.6440    13.1020 H        40  POP34       0.0268
  4547 H7S         -7.0280    16.1410    11.9290 H        40  POP34       0.0268
  4548 C28         -7.0930    18.3130    12.3730 C.3      40  POP34      -0.0348
  4549 H8R         -6.1180    18.5770    11.8500 H        40  POP34       0.0307
  4550 H8S         -6.9610    18.7740    13.3780 H        40  POP34       0.0307
  4551 C29         -8.2490    18.9750    11.7120 C.2      40  POP34      -0.0879
  4552 H91         -9.1330    19.1180    12.3840 H        40  POP34       0.0569
  4553 C210        -8.1840    19.6390    10.4990 C.2      40  POP34      -0.0879
  4554 H101        -9.0810    20.1140    10.1410 H        40  POP34       0.0569
  4555 C211        -7.0720    19.6280     9.4140 C.3      40  POP34      -0.0348
  4556 H11R        -6.0170    19.3140     9.7500 H        40  POP34       0.0307
  4557 H11S        -6.9160    20.6380     9.0840 H        40  POP34       0.0307
  4558 C212        -7.3570    18.6100     8.2510 C.3      40  POP34      -0.0496
  4559 H12R        -8.2480    19.0810     7.7540 H        40  POP34       0.0268
  4560 H12S        -7.6680    17.6410     8.6090 H        40  POP34       0.0268
  4561 C213        -6.2670    18.5440     7.1450 C.3      40  POP34      -0.0528
  4562 H13R        -6.3170    17.5110     6.7100 H        40  POP34       0.0265
  4563 H13S        -5.1520    18.5640     7.4730 H        40  POP34       0.0265
  4564 C214        -6.3970    19.4680     5.9110 C.3      40  POP34      -0.0530
  4565 H14R        -5.5440    19.4830     5.1640 H        40  POP34       0.0265
  4566 H14S        -6.4440    20.5240     6.3670 H        40  POP34       0.0265
  4567 C215        -7.6720    19.2400     5.1000 C.3      40  POP34      -0.0531
  4568 H15R        -8.4650    19.8930     5.5370 H        40  POP34       0.0265
  4569 H15S        -8.0400    18.2410     5.2560 H        40  POP34       0.0265
  4570 C216        -7.5810    19.4970     3.5870 C.3      40  POP34      -0.0533
  4571 H16R        -6.5970    19.3710     3.2440 H        40  POP34       0.0265
  4572 H16S        -7.9230    20.5100     3.2870 H        40  POP34       0.0265
  4573 C217        -8.4690    18.5620     2.7930 C.3      40  POP34      -0.0559
  4574 H17R        -9.4690    18.5400     3.2800 H        40  POP34       0.0263
  4575 H17S        -8.2020    17.4590     2.7860 H        40  POP34       0.0263
  4576 C218        -8.6970    19.0740     1.3070 C.3      40  POP34      -0.0653
  4577 H18R        -9.6410    18.5810     0.9050 H        40  POP34       0.0230
  4578 H18S        -7.7840    18.8130     0.7180 H        40  POP34       0.0230
  4579 H18T        -8.8590    20.1910     1.3890 H        40  POP34       0.0230
  4580 C33          0.6940    13.4640    13.8020 C.3      40  POP34      -0.0441
  4581 H3X          1.7140    12.9200    13.9470 H        40  POP34       0.0270
  4582 H3Y          0.7530    14.4330    14.2330 H        40  POP34       0.0270
  4583 C34          0.2770    13.6670    12.3300 C.3      40  POP34      -0.0526
  4584 H4X         -0.6590    14.1800    12.2880 H        40  POP34       0.0265
  4585 H4Y          0.2830    12.7210    11.8060 H        40  POP34       0.0265
  4586 C35          1.1790    14.6830    11.5650 C.3      40  POP34      -0.0530
  4587 H5X          2.2080    14.1850    11.4480 H        40  POP34       0.0265
  4588 H5Y          1.3500    15.4970    12.3040 H        40  POP34       0.0265
  4589 C36          0.6620    15.0600    10.2230 C.3      40  POP34      -0.0531
  4590 H6X         -0.2000    15.6810    10.3980 H        40  POP34       0.0265
  4591 H6Y          0.4350    14.1110     9.6440 H        40  POP34       0.0265
  4592 C37          1.7220    15.9080     9.4610 C.3      40  POP34      -0.0531
  4593 H7X          2.0040    16.7890    10.0770 H        40  POP34       0.0265
  4594 H7Y          1.2250    16.2740     8.5710 H        40  POP34       0.0265
  4595 C38          2.9300    15.0340     8.9820 C.3      40  POP34      -0.0531
  4596 H8X          2.5140    14.3230     8.2980 H        40  POP34       0.0265
  4597 H8Y          3.5430    14.5250     9.7480 H        40  POP34       0.0265
  4598 C39          3.9400    15.8700     8.2140 C.3      40  POP34      -0.0531
  4599 H9X          4.9950    15.3660     8.3450 H        40  POP34       0.0265
  4600 H9Y          3.8700    16.8880     8.6990 H        40  POP34       0.0265
  4601 C310         3.7700    15.9020     6.7060 C.3      40  POP34      -0.0531
  4602 H10X         2.7800    16.0130     6.4940 H        40  POP34       0.0265
  4603 H10Y         3.9220    14.9140     6.2160 H        40  POP34       0.0265
  4604 C311         4.5320    16.9570     6.0390 C.3      40  POP34      -0.0531
  4605 H11X         5.6040    16.8460     6.2160 H        40  POP34       0.0265
  4606 H11Y         4.1950    17.9540     6.4780 H        40  POP34       0.0265
  4607 C312         4.3960    16.9730     4.4870 C.3      40  POP34      -0.0531
  4608 H12X         4.7310    15.9500     4.3180 H        40  POP34       0.0265
  4609 H12Y         5.2490    17.6530     4.0780 H        40  POP34       0.0265
  4610 C313         3.0610    17.2490     3.8300 C.3      40  POP34      -0.0531
  4611 H13X         3.1030    18.2310     3.2980 H        40  POP34       0.0265
  4612 H13Y         2.1630    17.3930     4.4570 H        40  POP34       0.0265
  4613 C314         2.7510    16.1030     2.8500 C.3      40  POP34      -0.0533
  4614 H14X         2.9080    15.1470     3.4060 H        40  POP34       0.0265
  4615 H14Y         3.3960    16.0930     2.0100 H        40  POP34       0.0265
  4616 C315         1.2980    15.9820     2.3510 C.3      40  POP34      -0.0559
  4617 H15X         0.9920    16.9050     1.9420 H        40  POP34       0.0263
  4618 H15Y         0.5970    15.6680     3.1320 H        40  POP34       0.0263
  4619 C316         1.2250    14.8930     1.2900 C.3      40  POP34      -0.0653
  4620 H16X         0.2220    14.8320     0.8580 H        40  POP34       0.0230
  4621 H16Y         1.4450    13.9160     1.7510 H        40  POP34       0.0230
  4622 H16Z         2.0810    14.9900     0.5400 H        40  POP34       0.0230
  4623 N          -26.2000   -10.6990    18.1240 N.3      41  POP35       0.2385
  4624 C12        -25.7500   -12.0740    17.5870 C.3      41  POP35      -0.0064
  4625 H12A       -26.6500   -12.5210    17.1260 H        41  POP35       0.0838
  4626 H12B       -25.3450   -12.7400    18.3300 H        41  POP35       0.0838
  4627 C13        -27.0760   -10.9240    19.2730 C.3      41  POP35      -0.0417
  4628 H13A       -27.2660    -9.9850    19.7520 H        41  POP35       0.0778
  4629 H13B       -28.0320   -11.3570    19.0480 H        41  POP35       0.0778
  4630 H13C       -26.6910   -11.6070    20.0400 H        41  POP35       0.0778
  4631 C14        -25.0440    -9.8720    18.5910 C.3      41  POP35      -0.0417
  4632 H14A       -25.4320    -8.9630    19.1010 H        41  POP35       0.0778
  4633 H14B       -24.4970   -10.4260    19.3120 H        41  POP35       0.0778
  4634 H14C       -24.3910    -9.6290    17.7520 H        41  POP35       0.0778
  4635 C15        -26.9560    -9.8740    17.0690 C.3      41  POP35      -0.0417
  4636 H15A       -27.9320   -10.4540    16.8680 H        41  POP35       0.0778
  4637 H15B       -26.4950    -9.8270    16.1870 H        41  POP35       0.0778
  4638 H15C       -27.2100    -8.8810    17.4550 H        41  POP35       0.0778
  4639 C11        -24.7410   -11.9960    16.4160 C.3      41  POP35       0.0954
  4640 H11A       -24.9450   -11.1520    15.7600 H        41  POP35       0.0618
  4641 H11B       -24.7410   -12.9650    15.8110 H        41  POP35       0.0618
  4642 P          -22.4350   -12.7070    17.3290 P.3      41  POP35       0.2645
  4643 O13        -23.1400   -14.0090    17.4570 O.co2    41  POP35      -0.5105
  4644 O14        -21.8170   -12.1510    18.5510 O.co2    41  POP35      -0.5105
  4645 O12        -23.4230   -11.6460    16.7920 O.3      41  POP35      -0.3154
  4646 O11        -21.4320   -12.7130    16.1440 O.3      41  POP35      -0.3181
  4647 C1         -20.9540   -11.6740    15.3030 C.3      41  POP35       0.0845
  4648 HA         -20.1560   -11.0600    15.8440 H        41  POP35       0.0591
  4649 HB         -21.8350   -11.0210    14.9910 H        41  POP35       0.0591
  4650 C2         -20.1460   -12.3400    14.0960 C.3      41  POP35       0.1155
  4651 HS         -19.5830   -11.5160    13.5340 H        41  POP35       0.0649
  4652 O21        -21.1010   -13.0890    13.3060 O.3      41  POP35      -0.3072
  4653 C21        -21.9400   -12.3870    12.4860 C.2      41  POP35       0.2626
  4654 O22        -21.9000   -11.1760    12.3610 O.2      41  POP35      -0.2650
  4655 C22        -22.9880   -13.1870    11.8320 C.3      41  POP35       0.0332
  4656 H2R        -24.0080   -12.7070    11.7000 H        41  POP35       0.0366
  4657 H2S        -23.1500   -14.0630    12.5430 H        41  POP35       0.0366
  4658 C3         -19.1260   -13.4550    14.6250 C.3      41  POP35       0.0860
  4659 HX         -19.6520   -14.1090    15.3300 H        41  POP35       0.0593
  4660 HY         -18.4110   -12.9240    15.3030 H        41  POP35       0.0593
  4661 O31        -18.4480   -14.1310    13.4900 O.3      41  POP35      -0.3125
  4662 C31        -18.7200   -15.4840    13.4130 C.2      41  POP35       0.2622
  4663 O32        -19.3380   -16.1450    14.2590 O.2      41  POP35      -0.2650
  4664 C32        -17.9330   -16.1230    12.2250 C.3      41  POP35       0.0332
  4665 H2X        -16.8880   -15.7760    12.2780 H        41  POP35       0.0366
  4666 H2Y        -18.4260   -15.6950    11.3070 H        41  POP35       0.0366
  4667 C23        -22.3880   -13.7210    10.5170 C.3      41  POP35      -0.0441
  4668 H3R        -22.1340   -12.8700     9.8370 H        41  POP35       0.0270
  4669 H3S        -23.1130   -14.3790    10.0870 H        41  POP35       0.0270
  4670 C24        -21.1950   -14.6300    10.7510 C.3      41  POP35      -0.0526
  4671 H4R        -21.4160   -15.3290    11.6000 H        41  POP35       0.0265
  4672 H4S        -20.2280   -14.1040    10.8630 H        41  POP35       0.0265
  4673 C25        -20.8700   -15.5870     9.4860 C.3      41  POP35      -0.0530
  4674 H5R        -21.6580   -16.3670     9.3170 H        41  POP35       0.0265
  4675 H5S        -19.8940   -16.1010     9.6350 H        41  POP35       0.0265
  4676 C26        -20.7080   -14.7340     8.2380 C.3      41  POP35      -0.0528
  4677 H6R        -20.1790   -13.7390     8.4110 H        41  POP35       0.0265
  4678 H6S        -21.7300   -14.5570     7.7960 H        41  POP35       0.0265
  4679 C27        -19.7480   -15.4670     7.3020 C.3      41  POP35      -0.0496
  4680 H7R        -20.1990   -16.4270     6.9750 H        41  POP35       0.0268
  4681 H7S        -18.7330   -15.6410     7.7640 H        41  POP35       0.0268
  4682 C28        -19.4210   -14.5400     6.0860 C.3      41  POP35      -0.0348
  4683 H8R        -19.0740   -13.5490     6.3910 H        41  POP35       0.0307
  4684 H8S        -20.3390   -14.3080     5.4930 H        41  POP35       0.0307
  4685 C29        -18.4910   -15.1890     5.0320 C.2      41  POP35      -0.0879
  4686 H91        -18.9000   -15.7340     4.1190 H        41  POP35       0.0569
  4687 C210       -17.1760   -15.1850     5.1090 C.2      41  POP35      -0.0879
  4688 H101       -16.5390   -15.6550     4.3750 H        41  POP35       0.0569
  4689 C211       -16.2410   -14.5300     6.1370 C.3      41  POP35      -0.0348
  4690 H11R       -15.3450   -15.1470     6.3040 H        41  POP35       0.0307
  4691 H11S       -16.7370   -14.4410     7.1280 H        41  POP35       0.0307
  4692 C212       -15.9180   -13.0540     5.7750 C.3      41  POP35      -0.0496
  4693 H12R       -16.8690   -12.4690     5.8100 H        41  POP35       0.0268
  4694 H12S       -15.4500   -12.9700     4.7210 H        41  POP35       0.0268
  4695 C213       -15.0040   -12.2890     6.7650 C.3      41  POP35      -0.0528
  4696 H13R       -14.1310   -12.9130     6.8800 H        41  POP35       0.0265
  4697 H13S       -15.4690   -12.0880     7.6890 H        41  POP35       0.0265
  4698 C214       -14.4950   -10.8920     6.1560 C.3      41  POP35      -0.0530
  4699 H14R       -15.3080   -10.1870     6.0680 H        41  POP35       0.0265
  4700 H14S       -14.2090   -11.2330     5.1160 H        41  POP35       0.0265
  4701 C215       -13.3840   -10.1530     6.8880 C.3      41  POP35      -0.0531
  4702 H15R       -13.0090    -9.2610     6.3680 H        41  POP35       0.0265
  4703 H15S       -12.5670   -10.7540     7.1180 H        41  POP35       0.0265
  4704 C216       -13.8060    -9.5300     8.2420 C.3      41  POP35      -0.0533
  4705 H16R       -14.2700   -10.3130     8.8460 H        41  POP35       0.0265
  4706 H16S       -14.6330    -8.8620     8.0920 H        41  POP35       0.0265
  4707 C217       -12.5580    -8.9740     8.9660 C.3      41  POP35      -0.0559
  4708 H17R       -12.1090    -8.2570     8.2100 H        41  POP35       0.0263
  4709 H17S       -11.8160    -9.7920     9.1470 H        41  POP35       0.0263
  4710 C218       -12.7860    -8.1680    10.2690 C.3      41  POP35      -0.0653
  4711 H18R       -13.3290    -7.2280    10.0410 H        41  POP35       0.0230
  4712 H18S       -11.7790    -7.8050    10.7500 H        41  POP35       0.0230
  4713 H18T       -13.3700    -8.7360    11.0070 H        41  POP35       0.0230
  4714 C33        -17.8370   -17.7150    12.1470 C.3      41  POP35      -0.0441
  4715 H3X        -18.8170   -18.1130    12.1410 H        41  POP35       0.0270
  4716 H3Y        -17.4030   -18.0730    13.0740 H        41  POP35       0.0270
  4717 C34        -17.0020   -18.2920    11.0310 C.3      41  POP35      -0.0526
  4718 H4X        -16.7600   -19.3920    11.1970 H        41  POP35       0.0265
  4719 H4Y        -16.0150   -17.9100    11.0020 H        41  POP35       0.0265
  4720 C35        -17.5890   -18.1700     9.6190 C.3      41  POP35      -0.0530
  4721 H5X        -17.2760   -17.1260     9.3300 H        41  POP35       0.0265
  4722 H5Y        -18.6960   -18.2600     9.6150 H        41  POP35       0.0265
  4723 C36        -17.2690   -19.4240     8.7270 C.3      41  POP35      -0.0531
  4724 H6X        -17.7800   -20.2750     9.0910 H        41  POP35       0.0265
  4725 H6Y        -16.1320   -19.5340     8.7290 H        41  POP35       0.0265
  4726 C37        -17.7750   -19.0200     7.3120 C.3      41  POP35      -0.0531
  4727 H7X        -17.4780   -17.9830     7.2200 H        41  POP35       0.0265
  4728 H7Y        -18.8870   -19.1460     7.2970 H        41  POP35       0.0265
  4729 C38        -17.1950   -19.7850     6.1370 C.3      41  POP35      -0.0531
  4730 H8X        -16.1040   -19.6810     6.1850 H        41  POP35       0.0265
  4731 H8Y        -17.5590   -19.2600     5.2090 H        41  POP35       0.0265
  4732 C39        -17.5970   -21.2000     6.1470 C.3      41  POP35      -0.0531
  4733 H9X        -18.6090   -21.3150     5.9140 H        41  POP35       0.0265
  4734 H9Y        -17.3370   -21.5650     7.2120 H        41  POP35       0.0265
  4735 C310       -16.7620   -22.0210     5.0950 C.3      41  POP35      -0.0531
  4736 H10X       -15.6400   -21.9730     5.3110 H        41  POP35       0.0265
  4737 H10Y       -16.9930   -21.6300     4.1140 H        41  POP35       0.0265
  4738 C311       -17.1920   -23.4710     5.1360 C.3      41  POP35      -0.0531
  4739 H11X       -18.2870   -23.4550     5.0450 H        41  POP35       0.0265
  4740 H11Y       -16.9480   -23.8290     6.2100 H        41  POP35       0.0265
  4741 C312       -16.5890   -24.4000     4.0420 C.3      41  POP35      -0.0531
  4742 H12X       -15.5130   -24.3100     4.0960 H        41  POP35       0.0265
  4743 H12Y       -16.9520   -24.0420     3.0910 H        41  POP35       0.0265
  4744 C313       -17.0520   -25.9440     4.0750 C.3      41  POP35      -0.0531
  4745 H13X       -18.0990   -25.8740     4.4080 H        41  POP35       0.0265
  4746 H13Y       -16.4460   -26.4950     4.7890 H        41  POP35       0.0265
  4747 C314       -17.0650   -26.6770     2.7660 C.3      41  POP35      -0.0533
  4748 H14X       -16.1240   -26.3820     2.2450 H        41  POP35       0.0265
  4749 H14Y       -17.7790   -26.3510     1.9970 H        41  POP35       0.0265
  4750 C315       -17.3800   -28.1820     2.9730 C.3      41  POP35      -0.0559
  4751 H15X       -18.1960   -28.3420     3.7180 H        41  POP35       0.0263
  4752 H15Y       -16.4840   -28.5220     3.4780 H        41  POP35       0.0263
  4753 C316       -17.6020   -29.0320     1.6430 C.3      41  POP35      -0.0653
  4754 H16X       -16.6870   -28.9210     1.0420 H        41  POP35       0.0230
  4755 H16Y       -18.4280   -28.6920     1.1110 H        41  POP35       0.0230
  4756 H16Z       -17.8200   -30.0300     1.9480 H        41  POP35       0.0230
  4757 N           11.8370     1.9040    24.3970 N.3      42  POP36       0.2385
  4758 C12         12.5170     2.4200    23.1670 C.3      42  POP36      -0.0064
  4759 H12A        13.0970     1.6260    22.7370 H        42  POP36       0.0838
  4760 H12B        13.1910     3.1510    23.5200 H        42  POP36       0.0838
  4761 C13         10.9780     0.7230    24.1240 C.3      42  POP36      -0.0417
  4762 H13A        11.5500    -0.1520    23.6520 H        42  POP36       0.0778
  4763 H13B        10.7430     0.3050    25.0660 H        42  POP36       0.0778
  4764 H13C        10.1550     0.9500    23.4830 H        42  POP36       0.0778
  4765 C14         12.8010     1.4800    25.4490 C.3      42  POP36      -0.0417
  4766 H14A        13.3000     2.4540    25.7310 H        42  POP36       0.0778
  4767 H14B        12.4060     0.9770    26.3200 H        42  POP36       0.0778
  4768 H14C        13.5460     0.7610    25.1260 H        42  POP36       0.0778
  4769 C15         10.8970     2.9980    24.8950 C.3      42  POP36      -0.0417
  4770 H15A        10.0410     3.1990    24.2520 H        42  POP36       0.0778
  4771 H15B        11.4180     3.9440    24.9690 H        42  POP36       0.0778
  4772 H15C        10.4840     2.6510    25.8740 H        42  POP36       0.0778
  4773 C11         11.6790     3.0270    22.0310 C.3      42  POP36       0.0954
  4774 H11A        10.9580     2.1650    21.8080 H        42  POP36       0.0618
  4775 H11B        12.3660     3.1310    21.1290 H        42  POP36       0.0618
  4776 P           11.4700     5.5880    22.1070 P.3      42  POP36       0.2645
  4777 O13         12.6140     5.7480    22.9950 O.co2    42  POP36      -0.5105
  4778 O14         10.3260     6.5100    22.2450 O.co2    42  POP36      -0.5105
  4779 O12         10.8780     4.1420    22.3550 O.3      42  POP36      -0.3154
  4780 O11         12.0250     5.5060    20.6390 O.3      42  POP36      -0.3181
  4781 C1          11.0670     5.1250    19.6040 C.3      42  POP36       0.0845
  4782 HA          10.2110     5.8520    19.4620 H        42  POP36       0.0591
  4783 HB          10.8400     4.0340    19.7750 H        42  POP36       0.0591
  4784 C2          11.7940     5.2670    18.2450 C.3      42  POP36       0.1155
  4785 HS          12.9290     5.1810    18.4710 H        42  POP36       0.0649
  4786 O21         11.6180     6.6160    17.6930 O.3      42  POP36      -0.3072
  4787 C21         12.6970     7.3480    17.5580 C.2      42  POP36       0.2626
  4788 O22         13.8630     6.9770    17.6770 O.2      42  POP36      -0.2650
  4789 C22         12.2540     8.7540    17.3920 C.3      42  POP36       0.0332
  4790 H2R         12.1650     9.2960    18.3760 H        42  POP36       0.0366
  4791 H2S         11.3640     8.8320    16.8490 H        42  POP36       0.0366
  4792 C3          11.2110     4.2530    17.2850 C.3      42  POP36       0.0860
  4793 HX          10.1680     4.5080    17.1810 H        42  POP36       0.0593
  4794 HY          11.2830     3.2020    17.6670 H        42  POP36       0.0593
  4795 O31         11.7870     4.3660    15.9770 O.3      42  POP36      -0.3125
  4796 C31         12.8750     3.5520    15.8770 C.2      42  POP36       0.2622
  4797 O32         13.3730     2.8870    16.7600 O.2      42  POP36      -0.2650
  4798 C32         13.6020     3.8190    14.5730 C.3      42  POP36       0.0332
  4799 H2X         12.8780     4.1220    13.7650 H        42  POP36       0.0366
  4800 H2Y         14.0670     2.8850    14.3360 H        42  POP36       0.0366
  4801 C23         13.2550     9.6000    16.6580 C.3      42  POP36      -0.0441
  4802 H3R         13.5010     9.0910    15.6570 H        42  POP36       0.0270
  4803 H3S         14.2830     9.6940    17.1720 H        42  POP36       0.0270
  4804 C24         12.8530    11.0290    16.3980 C.3      42  POP36      -0.0526
  4805 H4R         13.7490    11.6520    16.1200 H        42  POP36       0.0265
  4806 H4S         12.4670    11.5280    17.3520 H        42  POP36       0.0265
  4807 C25         11.8520    11.1190    15.2370 C.3      42  POP36      -0.0530
  4808 H5R         10.8690    10.5910    15.4900 H        42  POP36       0.0265
  4809 H5S         12.1350    10.5150    14.3600 H        42  POP36       0.0265
  4810 C26         11.5790    12.6080    15.0110 C.3      42  POP36      -0.0528
  4811 H6R         12.5210    13.1860    14.7470 H        42  POP36       0.0265
  4812 H6S         11.3260    13.0990    15.9500 H        42  POP36       0.0265
  4813 C27         10.4720    12.7950    13.9130 C.3      42  POP36      -0.0496
  4814 H7R          9.4620    12.2900    14.0510 H        42  POP36       0.0268
  4815 H7S         10.8740    12.3030    12.9450 H        42  POP36       0.0268
  4816 C28         10.2470    14.3050    13.6290 C.3      42  POP36      -0.0348
  4817 H8R          9.6920    14.6640    14.4280 H        42  POP36       0.0307
  4818 H8S          9.6640    14.3860    12.6500 H        42  POP36       0.0307
  4819 C29         11.5490    15.0260    13.4390 C.2      42  POP36      -0.0879
  4820 H91         11.9280    15.6060    14.3240 H        42  POP36       0.0569
  4821 C210        12.2960    14.8380    12.3680 C.2      42  POP36      -0.0879
  4822 H101        13.2410    15.3090    12.3560 H        42  POP36       0.0569
  4823 C211        11.9400    13.9260    11.1790 C.3      42  POP36      -0.0348
  4824 H11R        10.8160    13.7780    11.1020 H        42  POP36       0.0307
  4825 H11S        12.4430    12.9970    11.4490 H        42  POP36       0.0307
  4826 C212        12.3040    14.3990     9.7610 C.3      42  POP36      -0.0496
  4827 H12R        11.9160    13.6410     9.0850 H        42  POP36       0.0268
  4828 H12S        13.4420    14.3920     9.7340 H        42  POP36       0.0268
  4829 C213        11.7570    15.7840     9.2620 C.3      42  POP36      -0.0528
  4830 H13R        12.1500    16.5710     9.8890 H        42  POP36       0.0265
  4831 H13S        10.6940    15.7250     9.5860 H        42  POP36       0.0265
  4832 C214        11.8210    15.9730     7.7790 C.3      42  POP36      -0.0530
  4833 H14R        11.5270    17.0330     7.4770 H        42  POP36       0.0265
  4834 H14S        11.1410    15.2910     7.2680 H        42  POP36       0.0265
  4835 C215        13.2230    15.7530     7.2580 C.3      42  POP36      -0.0531
  4836 H15R        13.9920    15.8570     8.0450 H        42  POP36       0.0265
  4837 H15S        13.4820    16.5710     6.5590 H        42  POP36       0.0265
  4838 C216        13.3530    14.3940     6.4620 C.3      42  POP36      -0.0533
  4839 H16R        12.5730    14.4050     5.6270 H        42  POP36       0.0265
  4840 H16S        13.1260    13.6100     7.2390 H        42  POP36       0.0265
  4841 C217        14.7420    14.1190     5.9620 C.3      42  POP36      -0.0559
  4842 H17R        14.9970    12.9980     5.7540 H        42  POP36       0.0263
  4843 H17S        15.3400    14.4220     6.8640 H        42  POP36       0.0263
  4844 C218        15.1110    14.9390     4.7750 C.3      42  POP36      -0.0653
  4845 H18R        16.1390    14.6380     4.4050 H        42  POP36       0.0230
  4846 H18S        14.5200    14.6900     3.8880 H        42  POP36       0.0230
  4847 H18T        15.1940    16.0700     4.8450 H        42  POP36       0.0230
  4848 C33         14.6240     4.9560    14.7630 C.3      42  POP36      -0.0441
  4849 H3X         15.3400     4.6230    15.5990 H        42  POP36       0.0270
  4850 H3Y         14.1040     5.8740    15.0120 H        42  POP36       0.0270
  4851 C34         15.5460     5.1400    13.5270 C.3      42  POP36      -0.0526
  4852 H4X         15.6230     4.1400    12.8690 H        42  POP36       0.0265
  4853 H4Y         16.5290     5.5200    13.8630 H        42  POP36       0.0265
  4854 C35         15.0590     6.2780    12.7000 C.3      42  POP36      -0.0530
  4855 H5X         15.0630     7.2110    13.2770 H        42  POP36       0.0265
  4856 H5Y         14.1010     6.0090    12.3570 H        42  POP36       0.0265
  4857 C36         15.9820     6.5030    11.4420 C.3      42  POP36      -0.0531
  4858 H6X         16.9330     5.9760    11.6010 H        42  POP36       0.0265
  4859 H6Y         16.4150     7.5800    11.4520 H        42  POP36       0.0265
  4860 C37         15.3200     6.1450    10.1290 C.3      42  POP36      -0.0531
  4861 H7X         14.8970     5.1170    10.1060 H        42  POP36       0.0265
  4862 H7Y         16.0960     6.1230     9.2890 H        42  POP36       0.0265
  4863 C38         14.3090     7.2480     9.7390 C.3      42  POP36      -0.0531
  4864 H8X         14.8180     7.8660     8.9420 H        42  POP36       0.0265
  4865 H8Y         14.0590     7.9690    10.5990 H        42  POP36       0.0265
  4866 C39         12.9410     6.6980     9.1150 C.3      42  POP36      -0.0531
  4867 H9X         12.4120     7.5610     8.7360 H        42  POP36       0.0265
  4868 H9Y         12.2800     6.4620    10.0330 H        42  POP36       0.0265
  4869 C310        13.0620     5.4990     8.1830 C.3      42  POP36      -0.0531
  4870 H10X        12.0640     5.1730     7.8270 H        42  POP36       0.0265
  4871 H10Y        13.3520     4.5760     8.7170 H        42  POP36       0.0265
  4872 C311        13.9380     5.5600     6.9680 C.3      42  POP36      -0.0531
  4873 H11X        14.9250     5.9740     7.3090 H        42  POP36       0.0265
  4874 H11Y        13.4110     6.1880     6.2510 H        42  POP36       0.0265
  4875 C312        14.1790     4.2010     6.4350 C.3      42  POP36      -0.0531
  4876 H12X        13.2360     3.7210     6.1640 H        42  POP36       0.0265
  4877 H12Y        14.7010     3.5890     7.2770 H        42  POP36       0.0265
  4878 C313        15.0690     4.1970     5.1960 C.3      42  POP36      -0.0531
  4879 H13X        15.8310     4.9380     5.3140 H        42  POP36       0.0265
  4880 H13Y        14.5950     4.5720     4.3450 H        42  POP36       0.0265
  4881 C314        15.6150     2.8470     4.7400 C.3      42  POP36      -0.0533
  4882 H14X        15.0160     2.0460     5.0350 H        42  POP36       0.0265
  4883 H14Y        16.6190     2.7120     5.2630 H        42  POP36       0.0265
  4884 C315        16.0380     2.8690     3.2860 C.3      42  POP36      -0.0559
  4885 H15X        16.8550     3.6110     3.1410 H        42  POP36       0.0263
  4886 H15Y        15.1950     3.2230     2.6470 H        42  POP36       0.0263
  4887 C316        16.4560     1.5000     2.7230 C.3      42  POP36      -0.0653
  4888 H16X        17.3540     1.0000     3.0840 H        42  POP36       0.0230
  4889 H16Y        16.6540     1.7470     1.6840 H        42  POP36       0.0230
  4890 H16Z        15.6780     0.7150     2.8170 H        42  POP36       0.0230
  4891 N            5.4430    -2.1880    28.1020 N.3      43  POP37       0.2385
  4892 C12          4.5460    -2.1710    26.8760 C.3      43  POP37      -0.0064
  4893 H12A         3.7140    -1.5030    27.0600 H        43  POP37       0.0838
  4894 H12B         4.0920    -3.1660    26.7990 H        43  POP37       0.0838
  4895 C13          6.4870    -3.2420    27.9930 C.3      43  POP37      -0.0417
  4896 H13A         6.8280    -3.6280    29.0010 H        43  POP37       0.0778
  4897 H13B         6.1860    -4.1630    27.5230 H        43  POP37       0.0778
  4898 H13C         7.3500    -2.8960    27.3850 H        43  POP37       0.0778
  4899 C14          6.0640    -0.8380    28.1300 C.3      43  POP37      -0.0417
  4900 H14A         6.4540    -0.5000    29.1250 H        43  POP37       0.0778
  4901 H14B         6.8450    -0.6800    27.4270 H        43  POP37       0.0778
  4902 H14C         5.2700    -0.2110    27.9080 H        43  POP37       0.0778
  4903 C15          4.6420    -2.3290    29.3600 C.3      43  POP37      -0.0417
  4904 H15A         4.0840    -3.2480    29.3900 H        43  POP37       0.0778
  4905 H15B         3.9280    -1.5690    29.4950 H        43  POP37       0.0778
  4906 H15C         5.2800    -2.2850    30.2430 H        43  POP37       0.0778
  4907 C11          5.0080    -1.9740    25.3400 C.3      43  POP37       0.0954
  4908 H11A         4.2510    -2.1290    24.5940 H        43  POP37       0.0618
  4909 H11B         5.8110    -2.7780    25.2550 H        43  POP37       0.0618
  4910 P            4.7360     0.5490    25.0670 P.3      43  POP37       0.2645
  4911 O13          5.4730     1.7930    25.2700 O.co2    43  POP37      -0.5105
  4912 O14          3.5630     0.4420    26.0230 O.co2    43  POP37      -0.5105
  4913 O12          5.6920    -0.7640    25.1800 O.3      43  POP37      -0.3154
  4914 O11          4.2340     0.5190    23.5570 O.3      43  POP37      -0.3181
  4915 C1           5.1940     0.5150    22.4940 C.3      43  POP37       0.0845
  4916 HA           6.1590     0.0690    22.7370 H        43  POP37       0.0591
  4917 HB           5.3820     1.6660    22.3080 H        43  POP37       0.0591
  4918 C2           4.6060    -0.0360    21.1720 C.3      43  POP37       0.1155
  4919 HS           5.3580    -0.2520    20.4780 H        43  POP37       0.0649
  4920 O21          3.6630     0.9420    20.6640 O.3      43  POP37      -0.3072
  4921 C21          4.0620     1.7760    19.7330 C.2      43  POP37       0.2626
  4922 O22          5.2310     1.9160    19.3760 O.2      43  POP37      -0.2650
  4923 C22          2.8790     2.4590    19.0600 C.3      43  POP37       0.0332
  4924 H2R          2.6060     3.3630    19.6160 H        43  POP37       0.0366
  4925 H2S          2.0560     1.7740    18.9750 H        43  POP37       0.0366
  4926 C3           3.8220    -1.3880    21.3740 C.3      43  POP37       0.0860
  4927 HX           2.9790    -1.1380    21.9940 H        43  POP37       0.0593
  4928 HY           4.3860    -2.1120    21.9310 H        43  POP37       0.0593
  4929 O31          3.2770    -1.9050    20.0930 O.3      43  POP37      -0.3125
  4930 C31          4.2180    -2.5680    19.3860 C.2      43  POP37       0.2622
  4931 O32          5.3640    -2.5770    19.6490 O.2      43  POP37      -0.2650
  4932 C32          3.6910    -3.2130    18.1020 C.3      43  POP37       0.0332
  4933 H2X          2.8290    -3.9580    18.3660 H        43  POP37       0.0366
  4934 H2Y          4.5270    -3.7410    17.5510 H        43  POP37       0.0366
  4935 C23          3.1510     2.8370    17.6050 C.3      43  POP37      -0.0441
  4936 H3R          2.2980     2.6890    16.9610 H        43  POP37       0.0270
  4937 H3S          4.0230     2.3600    17.1990 H        43  POP37       0.0270
  4938 C24          3.3970     4.3960    17.5020 C.3      43  POP37      -0.0526
  4939 H4R          4.0390     4.7190    18.3580 H        43  POP37       0.0265
  4940 H4S          2.4250     4.8800    17.5640 H        43  POP37       0.0265
  4941 C25          4.0320     4.8560    16.1840 C.3      43  POP37      -0.0530
  4942 H5R          5.0470     4.3910    15.9270 H        43  POP37       0.0265
  4943 H5S          4.1650     5.9620    16.3220 H        43  POP37       0.0265
  4944 C26          3.0930     4.7230    14.9840 C.3      43  POP37      -0.0528
  4945 H6R          2.2590     5.4440    15.1540 H        43  POP37       0.0265
  4946 H6S          2.7530     3.7030    14.9290 H        43  POP37       0.0265
  4947 C27          3.8160     5.0470    13.7000 C.3      43  POP37      -0.0496
  4948 H7R          4.8640     4.7200    13.7680 H        43  POP37       0.0268
  4949 H7S          3.7910     6.1980    13.5790 H        43  POP37       0.0268
  4950 C28          3.1130     4.3690    12.5130 C.3      43  POP37      -0.0348
  4951 H8R          2.2080     4.8860    12.3080 H        43  POP37       0.0307
  4952 H8S          2.7440     3.3340    12.7960 H        43  POP37       0.0307
  4953 C29          3.9500     4.2480    11.2120 C.2      43  POP37      -0.0879
  4954 H91          4.5730     3.4160    11.1160 H        43  POP37       0.0569
  4955 C210         3.9590     5.1780    10.2450 C.2      43  POP37      -0.0879
  4956 H101         4.6530     5.1670     9.3840 H        43  POP37       0.0569
  4957 C211         3.1110     6.3550    10.2300 C.3      43  POP37      -0.0348
  4958 H11R         2.6550     6.5590    11.1750 H        43  POP37       0.0307
  4959 H11S         2.3370     6.3230     9.4810 H        43  POP37       0.0307
  4960 C212         3.9330     7.6490     9.7810 C.3      43  POP37      -0.0496
  4961 H12R         4.9500     7.6940    10.2570 H        43  POP37       0.0268
  4962 H12S         3.3000     8.4860    10.1410 H        43  POP37       0.0268
  4963 C213         4.0080     7.7170     8.3180 C.3      43  POP37      -0.0528
  4964 H13R         2.9370     7.4730     7.9480 H        43  POP37       0.0265
  4965 H13S         4.5890     6.9060     7.9610 H        43  POP37       0.0265
  4966 C214         4.5030     9.1410     7.9280 C.3      43  POP37      -0.0530
  4967 H14R         5.6040     9.1980     8.1820 H        43  POP37       0.0265
  4968 H14S         4.0440     9.8870     8.6140 H        43  POP37       0.0265
  4969 C215         4.0210     9.4810     6.4930 C.3      43  POP37      -0.0531
  4970 H15R         2.9740     9.2080     6.3720 H        43  POP37       0.0265
  4971 H15S         4.5300     8.9660     5.7070 H        43  POP37       0.0265
  4972 C216         4.1800    11.0510     6.1230 C.3      43  POP37      -0.0533
  4973 H16R         4.9500    11.4580     6.7860 H        43  POP37       0.0265
  4974 H16S         3.1820    11.5540     6.3280 H        43  POP37       0.0265
  4975 C217         4.5620    11.2760     4.6330 C.3      43  POP37      -0.0559
  4976 H17R         3.9030    10.6380     4.0190 H        43  POP37       0.0263
  4977 H17S         5.6300    10.9510     4.4210 H        43  POP37       0.0263
  4978 C218         4.4710    12.6990     4.1890 C.3      43  POP37      -0.0653
  4979 H18R         4.7010    12.8040     3.0620 H        43  POP37       0.0230
  4980 H18S         5.2210    13.3730     4.6630 H        43  POP37       0.0230
  4981 H18T         3.4320    13.1950     4.4160 H        43  POP37       0.0230
  4982 C33          3.2670    -2.1830    16.9660 C.3      43  POP37      -0.0441
  4983 H3X          2.6330    -1.4360    17.5420 H        43  POP37       0.0270
  4984 H3Y          2.5630    -2.7090    16.2550 H        43  POP37       0.0270
  4985 C34          4.5050    -1.5700    16.1900 C.3      43  POP37      -0.0526
  4986 H4X          5.1650    -2.3930    15.7940 H        43  POP37       0.0265
  4987 H4Y          5.0990    -0.8250    16.7080 H        43  POP37       0.0265
  4988 C35          4.0340    -0.8130    14.9750 C.3      43  POP37      -0.0530
  4989 H5X          3.4590     0.0740    15.3490 H        43  POP37       0.0265
  4990 H5Y          3.3580    -1.4510    14.3310 H        43  POP37       0.0265
  4991 C36          5.2670    -0.2860    14.1750 C.3      43  POP37      -0.0531
  4992 H6X          6.0940    -1.0510    14.2490 H        43  POP37       0.0265
  4993 H6Y          5.6600     0.6660    14.5270 H        43  POP37       0.0265
  4994 C37          4.9870    -0.2200    12.6530 C.3      43  POP37      -0.0531
  4995 H7X          4.1970     0.4700    12.3420 H        43  POP37       0.0265
  4996 H7Y          4.7700    -1.3210    12.4070 H        43  POP37       0.0265
  4997 C38          6.2310     0.1300    11.8540 C.3      43  POP37      -0.0531
  4998 H8X          7.0880    -0.4280    12.2800 H        43  POP37       0.0265
  4999 H8Y          6.4570     1.2310    11.9000 H        43  POP37       0.0265
  5000 C39          6.1370    -0.2240    10.3440 C.3      43  POP37      -0.0531
  5001 H9X          5.8540    -1.2600    10.2680 H        43  POP37       0.0265
  5002 H9Y          7.1790    -0.1200     9.8420 H        43  POP37       0.0265
  5003 C310         5.1140     0.6260     9.5240 C.3      43  POP37      -0.0531
  5004 H10X         5.6560     1.6230     9.3510 H        43  POP37       0.0265
  5005 H10Y         4.2620     0.8350    10.1450 H        43  POP37       0.0265
  5006 C311         4.6610     0.0330     8.1880 C.3      43  POP37      -0.0531
  5007 H11X         5.5070    -0.3210     7.5660 H        43  POP37       0.0265
  5008 H11Y         4.2310     0.8260     7.5960 H        43  POP37       0.0265
  5009 C312         3.7290    -1.1600     8.2960 C.3      43  POP37      -0.0531
  5010 H12X         2.7350    -0.8620     8.7830 H        43  POP37       0.0265
  5011 H12Y         4.2390    -1.8330     9.0040 H        43  POP37       0.0265
  5012 C313         3.5020    -1.9130     7.0030 C.3      43  POP37      -0.0531
  5013 H13X         4.4720    -2.2400     6.5680 H        43  POP37       0.0265
  5014 H13Y         3.0210    -1.2640     6.2700 H        43  POP37       0.0265
  5015 C314         2.5540    -3.0990     7.1700 C.3      43  POP37      -0.0533
  5016 H14X         1.5400    -2.7020     7.4380 H        43  POP37       0.0265
  5017 H14Y         2.8570    -3.7890     8.0610 H        43  POP37       0.0265
  5018 C315         2.4030    -3.9290     5.8630 C.3      43  POP37      -0.0559
  5019 H15X         1.9230    -4.9210     6.0900 H        43  POP37       0.0263
  5020 H15Y         3.4060    -4.2830     5.5930 H        43  POP37       0.0263
  5021 C316         1.7200    -3.1470     4.7140 C.3      43  POP37      -0.0653
  5022 H16X         0.7500    -2.8740     5.0450 H        43  POP37       0.0230
  5023 H16Y         1.6520    -3.6850     3.8000 H        43  POP37       0.0230
  5024 H16Z         2.2460    -2.2210     4.5210 H        43  POP37       0.0230
  5025 N           32.8300   -30.3450    23.9580 N.3      44  POP38       0.2385
  5026 C12         32.0650   -30.4760    22.7340 C.3      44  POP38      -0.0064
  5027 H12A        31.1090   -30.8430    22.9970 H        44  POP38       0.0838
  5028 H12B        32.5870   -31.2570    22.1540 H        44  POP38       0.0838
  5029 C13         34.2430   -29.9580    23.5580 C.3      44  POP38      -0.0417
  5030 H13A        34.8730   -29.8900    24.3860 H        44  POP38       0.0778
  5031 H13B        34.6670   -30.7380    23.0060 H        44  POP38       0.0778
  5032 H13C        34.2450   -29.0250    23.0500 H        44  POP38       0.0778
  5033 C14         32.2800   -29.3150    24.9520 C.3      44  POP38      -0.0417
  5034 H14A        33.0830   -29.1290    25.6790 H        44  POP38       0.0778
  5035 H14B        32.0830   -28.3230    24.6240 H        44  POP38       0.0778
  5036 H14C        31.3030   -29.5380    25.4610 H        44  POP38       0.0778
  5037 C15         32.9560   -31.6960    24.5570 C.3      44  POP38      -0.0417
  5038 H15A        33.6890   -32.3120    23.9770 H        44  POP38       0.0778
  5039 H15B        31.9270   -32.1710    24.6430 H        44  POP38       0.0778
  5040 H15C        33.4380   -31.6340    25.4700 H        44  POP38       0.0778
  5041 C11         31.8770   -29.2590    21.7480 C.3      44  POP38       0.0954
  5042 H11A        31.2920   -29.7160    20.9610 H        44  POP38       0.0618
  5043 H11B        32.8850   -28.9870    21.2750 H        44  POP38       0.0618
  5044 P           29.7630   -27.7870    22.0240 P.3      44  POP38       0.2645
  5045 O13         29.4030   -26.6350    22.8800 O.co2    44  POP38      -0.5105
  5046 O14         28.9680   -28.9870    22.2300 O.co2    44  POP38      -0.5105
  5047 O12         31.2830   -28.1610    22.3200 O.3      44  POP38      -0.3154
  5048 O11         29.7350   -27.3670    20.5280 O.3      44  POP38      -0.3181
  5049 C1          30.6770   -26.3840    19.8820 C.3      44  POP38       0.0845
  5050 HA          31.6750   -26.3110    20.4250 H        44  POP38       0.0591
  5051 HB          30.2150   -25.3910    19.7650 H        44  POP38       0.0591
  5052 C2          31.0780   -26.7740    18.4050 C.3      44  POP38       0.1155
  5053 HS          31.9360   -26.1970    18.0050 H        44  POP38       0.0649
  5054 O21         29.9710   -26.6310    17.5270 O.3      44  POP38      -0.3072
  5055 C21         29.6420   -25.4440    17.1170 C.2      44  POP38       0.2626
  5056 O22         30.2250   -24.3820    17.4150 O.2      44  POP38      -0.2650
  5057 C22         28.3400   -25.5010    16.2460 C.3      44  POP38       0.0332
  5058 H2R         27.8190   -24.4650    16.4880 H        44  POP38       0.0366
  5059 H2S         27.7110   -26.3530    16.6700 H        44  POP38       0.0366
  5060 C3          31.4450   -28.2550    18.3890 C.3      44  POP38       0.0860
  5061 HX          30.6470   -28.7890    18.8240 H        44  POP38       0.0593
  5062 HY          32.3760   -28.3750    19.0610 H        44  POP38       0.0593
  5063 O31         31.9190   -28.6990    17.0780 O.3      44  POP38      -0.3125
  5064 C31         30.9860   -29.2380    16.3220 C.2      44  POP38       0.2622
  5065 O32         29.7940   -29.3730    16.5890 O.2      44  POP38      -0.2650
  5066 C32         31.6610   -29.6150    14.9590 C.3      44  POP38       0.0332
  5067 H2X         32.3770   -30.3760    15.2890 H        44  POP38       0.0366
  5068 H2Y         32.2320   -28.7120    14.4960 H        44  POP38       0.0366
  5069 C23         28.8070   -25.8320    14.8400 C.3      44  POP38      -0.0441
  5070 H3R         29.5000   -26.7050    14.7270 H        44  POP38       0.0270
  5071 H3S         29.4620   -24.9810    14.5670 H        44  POP38       0.0270
  5072 C24         27.6110   -26.0540    13.9520 C.3      44  POP38      -0.0526
  5073 H4R         26.8370   -25.2720    14.2860 H        44  POP38       0.0265
  5074 H4S         27.2690   -27.0500    14.2210 H        44  POP38       0.0265
  5075 C25         27.9870   -25.9010    12.4860 C.3      44  POP38      -0.0530
  5076 H5R         28.9650   -26.4550    12.2910 H        44  POP38       0.0265
  5077 H5S         28.2000   -24.7930    12.2710 H        44  POP38       0.0265
  5078 C26         26.9780   -26.4400    11.4660 C.3      44  POP38      -0.0528
  5079 H6R         26.9010   -27.5240    11.6540 H        44  POP38       0.0265
  5080 H6S         27.4490   -26.3360    10.4210 H        44  POP38       0.0265
  5081 C27         25.7710   -25.5470    11.4520 C.3      44  POP38      -0.0496
  5082 H7R         26.0380   -24.5070    11.0990 H        44  POP38       0.0268
  5083 H7S         25.3750   -25.3980    12.4550 H        44  POP38       0.0268
  5084 C28         24.7400   -26.0640    10.4430 C.3      44  POP38      -0.0348
  5085 H8R         24.4240   -27.0550    10.7340 H        44  POP38       0.0307
  5086 H8S         25.3820   -26.1430     9.5270 H        44  POP38       0.0307
  5087 C29         23.4480   -25.2200    10.1900 C.2      44  POP38      -0.0879
  5088 H91         22.7750   -25.0890    10.9820 H        44  POP38       0.0569
  5089 C210        23.1530   -24.5430     9.0900 C.2      44  POP38      -0.0879
  5090 H101        22.1930   -23.9970     8.9350 H        44  POP38       0.0569
  5091 C211        23.9280   -24.4690     7.8220 C.3      44  POP38      -0.0348
  5092 H11R        24.8170   -23.8880     7.9660 H        44  POP38       0.0307
  5093 H11S        23.3270   -23.7510     7.1280 H        44  POP38       0.0307
  5094 C212        24.1540   -25.7770     7.0460 C.3      44  POP38      -0.0496
  5095 H12R        24.8280   -26.4440     7.7350 H        44  POP38       0.0268
  5096 H12S        24.6770   -25.5350     6.0410 H        44  POP38       0.0268
  5097 C213        22.8490   -26.4180     6.6690 C.3      44  POP38      -0.0528
  5098 H13R        22.1290   -25.6800     6.2780 H        44  POP38       0.0265
  5099 H13S        22.2850   -26.8260     7.5440 H        44  POP38       0.0265
  5100 C214        22.8430   -27.5560     5.6630 C.3      44  POP38      -0.0530
  5101 H14R        21.9010   -28.0740     5.5600 H        44  POP38       0.0265
  5102 H14S        23.5620   -28.3110     5.9440 H        44  POP38       0.0265
  5103 C215        23.0720   -27.0630     4.1840 C.3      44  POP38      -0.0531
  5104 H15R        24.0620   -26.7350     3.9810 H        44  POP38       0.0265
  5105 H15S        22.3760   -26.2440     4.0330 H        44  POP38       0.0265
  5106 C216        22.8650   -28.1580     3.0900 C.3      44  POP38      -0.0533
  5107 H16R        22.5740   -27.6210     2.1450 H        44  POP38       0.0265
  5108 H16S        21.9720   -28.7790     3.3620 H        44  POP38       0.0265
  5109 C217        23.9830   -29.1570     2.9000 C.3      44  POP38      -0.0559
  5110 H17R        24.1920   -29.5150     3.9240 H        44  POP38       0.0263
  5111 H17S        24.9240   -28.6730     2.4760 H        44  POP38       0.0263
  5112 C218        23.5960   -30.2730     1.9860 C.3      44  POP38      -0.0653
  5113 H18R        24.4710   -30.7750     1.6890 H        44  POP38       0.0230
  5114 H18S        23.1740   -29.9680     1.0020 H        44  POP38       0.0230
  5115 H18T        22.9290   -30.9630     2.5290 H        44  POP38       0.0230
  5116 C33         30.7880   -30.2930    13.8150 C.3      44  POP38      -0.0441
  5117 H3X         30.0440   -30.9600    14.2330 H        44  POP38       0.0270
  5118 H3Y         31.4840   -30.9640    13.3310 H        44  POP38       0.0270
  5119 C34         30.2440   -29.2590    12.8120 C.3      44  POP38      -0.0526
  5120 H4X         31.1370   -28.8170    12.2460 H        44  POP38       0.0265
  5121 H4Y         29.5760   -28.5030    13.2660 H        44  POP38       0.0265
  5122 C35         29.3910   -30.0430    11.7830 C.3      44  POP38      -0.0530
  5123 H5X         28.3850   -30.3710    12.1840 H        44  POP38       0.0265
  5124 H5Y         29.8850   -31.0840    11.5480 H        44  POP38       0.0265
  5125 C36         29.2550   -29.3580    10.4740 C.3      44  POP38      -0.0531
  5126 H6X         29.0610   -28.2960    10.6820 H        44  POP38       0.0265
  5127 H6Y         28.3440   -29.8140     9.9900 H        44  POP38       0.0265
  5128 C37         30.3320   -29.6680     9.4020 C.3      44  POP38      -0.0531
  5129 H7X         30.5560   -30.7150     9.1060 H        44  POP38       0.0265
  5130 H7Y         31.3780   -29.4190     9.9550 H        44  POP38       0.0265
  5131 C38         30.1060   -28.8930     8.1500 C.3      44  POP38      -0.0531
  5132 H8X         30.0380   -27.8180     8.4240 H        44  POP38       0.0265
  5133 H8Y         29.1840   -29.1070     7.6750 H        44  POP38       0.0265
  5134 C39         31.3490   -28.8260     7.1450 C.3      44  POP38      -0.0531
  5135 H9X         32.2260   -28.9550     7.8000 H        44  POP38       0.0265
  5136 H9Y         31.4010   -27.7680     6.7650 H        44  POP38       0.0265
  5137 C310        31.2810   -29.8540     6.1340 C.3      44  POP38      -0.0531
  5138 H10X        30.3400   -29.9030     5.4980 H        44  POP38       0.0265
  5139 H10Y        31.4630   -30.8660     6.6330 H        44  POP38       0.0265
  5140 C311        32.4750   -29.8090     5.1910 C.3      44  POP38      -0.0531
  5141 H11X        32.8340   -28.7630     4.9270 H        44  POP38       0.0265
  5142 H11Y        32.1320   -30.3690     4.2580 H        44  POP38       0.0265
  5143 C312        33.6380   -30.5130     5.7720 C.3      44  POP38      -0.0531
  5144 H12X        33.3910   -31.4750     6.2500 H        44  POP38       0.0265
  5145 H12Y        34.0700   -29.7560     6.4960 H        44  POP38       0.0265
  5146 C313        34.7800   -30.9160     4.7830 C.3      44  POP38      -0.0531
  5147 H13X        34.8070   -30.1290     4.0790 H        44  POP38       0.0265
  5148 H13Y        34.5840   -31.8600     4.3070 H        44  POP38       0.0265
  5149 C314        36.2250   -31.1130     5.4040 C.3      44  POP38      -0.0533
  5150 H14X        36.5830   -30.1860     5.8300 H        44  POP38       0.0265
  5151 H14Y        36.9880   -31.3540     4.6570 H        44  POP38       0.0265
  5152 C315        36.2640   -32.1410     6.5000 C.3      44  POP38      -0.0559
  5153 H15X        35.8990   -33.1500     6.1020 H        44  POP38       0.0263
  5154 H15Y        35.5370   -32.0040     7.2820 H        44  POP38       0.0263
  5155 C316        37.6030   -32.2430     7.1130 C.3      44  POP38      -0.0653
  5156 H16X        38.3770   -32.4740     6.3630 H        44  POP38       0.0230
  5157 H16Y        37.5840   -33.1760     7.8510 H        44  POP38       0.0230
  5158 H16Z        37.8400   -31.2840     7.6480 H        44  POP38       0.0230
  5159 N          -13.5740   -27.8820    16.2690 N.3      45  POP39       0.2385
  5160 C12        -13.5840   -27.5150    17.7650 C.3      45  POP39      -0.0064
  5161 H12A       -14.4360   -26.8900    18.0210 H        45  POP39       0.0838
  5162 H12B       -12.6600   -27.0120    17.9340 H        45  POP39       0.0838
  5163 C13        -12.4470   -28.8270    15.9530 C.3      45  POP39      -0.0417
  5164 H13A       -12.4780   -29.1400    14.9190 H        45  POP39       0.0778
  5165 H13B       -11.5410   -28.3830    16.2910 H        45  POP39       0.0778
  5166 H13C       -12.6670   -29.7650    16.5110 H        45  POP39       0.0778
  5167 C14        -14.8650   -28.6000    15.8790 C.3      45  POP39      -0.0417
  5168 H14A       -15.7020   -27.8620    15.9900 H        45  POP39       0.0778
  5169 H14B       -14.8520   -28.9010    14.9660 H        45  POP39       0.0778
  5170 H14C       -15.1580   -29.3680    16.6040 H        45  POP39       0.0778
  5171 C15        -13.4350   -26.7050    15.4320 C.3      45  POP39      -0.0417
  5172 H15A       -13.3020   -26.9810    14.4080 H        45  POP39       0.0778
  5173 H15B       -12.5260   -26.2560    15.7760 H        45  POP39       0.0778
  5174 H15C       -14.2690   -26.0710    15.5920 H        45  POP39       0.0778
  5175 C11        -13.6860   -28.6930    18.8030 C.3      45  POP39       0.0954
  5176 H11A       -13.3680   -28.4050    19.7780 H        45  POP39       0.0618
  5177 H11B       -13.1340   -29.5980    18.3510 H        45  POP39       0.0618
  5178 P          -15.5160   -30.2990    19.8210 P.3      45  POP39       0.2645
  5179 O13        -16.9230   -30.0610    20.3370 O.co2    45  POP39      -0.5105
  5180 O14        -14.4620   -30.5590    20.8110 O.co2    45  POP39      -0.5105
  5181 O12        -15.0550   -29.0720    18.8830 O.3      45  POP39      -0.3154
  5182 O11        -15.5680   -31.4300    18.7810 O.3      45  POP39      -0.3181
  5183 C1         -16.1820   -31.2980    17.4790 C.3      45  POP39       0.0845
  5184 HA         -15.3730   -31.3810    16.6950 H        45  POP39       0.0591
  5185 HB         -16.7060   -30.3420    17.3350 H        45  POP39       0.0591
  5186 C2         -17.1780   -32.4350    17.1830 C.3      45  POP39       0.1155
  5187 HS         -17.7860   -32.7020    18.1050 H        45  POP39       0.0649
  5188 O21        -16.4210   -33.5260    16.7100 O.3      45  POP39      -0.3072
  5189 C21        -17.0230   -34.7050    16.5540 C.2      45  POP39       0.2626
  5190 O22        -18.1350   -34.9340    16.9900 O.2      45  POP39      -0.2650
  5191 C22        -16.1210   -35.7410    15.9110 C.3      45  POP39       0.0332
  5192 H2R        -15.6340   -36.3970    16.7230 H        45  POP39       0.0366
  5193 H2S        -15.2490   -35.1600    15.6060 H        45  POP39       0.0366
  5194 C3         -18.2210   -31.9120    16.1000 C.3      45  POP39       0.0860
  5195 HX         -18.7440   -30.9820    16.4630 H        45  POP39       0.0593
  5196 HY         -19.0850   -32.6550    16.0110 H        45  POP39       0.0593
  5197 O31        -17.6540   -31.3760    14.8680 O.3      45  POP39      -0.3125
  5198 C31        -17.5080   -32.3600    13.9410 C.2      45  POP39       0.2622
  5199 O32        -17.9560   -33.5010    14.1520 O.2      45  POP39      -0.2650
  5200 C32        -16.9730   -31.8060    12.6400 C.3      45  POP39       0.0332
  5201 H2X        -16.0580   -32.3510    12.4880 H        45  POP39       0.0366
  5202 H2Y        -16.6930   -30.7190    12.6850 H        45  POP39       0.0366
  5203 C23        -16.8060   -36.4850    14.8210 C.3      45  POP39      -0.0441
  5204 H3R        -16.8070   -35.8170    13.9290 H        45  POP39       0.0270
  5205 H3S        -17.8440   -36.7560    15.0890 H        45  POP39       0.0270
  5206 C24        -16.0570   -37.8350    14.5660 C.3      45  POP39      -0.0526
  5207 H4R        -16.1370   -38.4320    15.5050 H        45  POP39       0.0265
  5208 H4S        -15.0450   -37.5130    14.3590 H        45  POP39       0.0265
  5209 C25        -16.5580   -38.7480    13.4150 C.3      45  POP39      -0.0530
  5210 H5R        -16.5770   -38.1040    12.5540 H        45  POP39       0.0265
  5211 H5S        -17.5600   -39.0980    13.4990 H        45  POP39       0.0265
  5212 C26        -15.5910   -39.8790    12.9770 C.3      45  POP39      -0.0528
  5213 H6R        -14.6950   -39.4420    12.7120 H        45  POP39       0.0265
  5214 H6S        -15.8050   -40.3870    12.0180 H        45  POP39       0.0265
  5215 C27        -15.4450   -40.9360    14.0710 C.3      45  POP39      -0.0496
  5216 H7R        -16.4270   -41.3570    14.2100 H        45  POP39       0.0268
  5217 H7S        -15.1060   -40.5060    15.0380 H        45  POP39       0.0268
  5218 C28        -14.4410   -42.0420    13.6200 C.3      45  POP39      -0.0348
  5219 H8R        -14.0010   -42.4680    14.5400 H        45  POP39       0.0307
  5220 H8S        -13.5800   -41.5480    13.1240 H        45  POP39       0.0307
  5221 C29        -15.0030   -43.1390    12.6520 C.2      45  POP39      -0.0879
  5222 H91        -15.7310   -43.7730    13.2310 H        45  POP39       0.0569
  5223 C210       -14.7230   -43.4560    11.3640 C.2      45  POP39      -0.0879
  5224 H101       -15.4010   -44.2270    10.9310 H        45  POP39       0.0569
  5225 C211       -13.8740   -42.7040    10.4290 C.3      45  POP39      -0.0348
  5226 H11R       -12.9970   -43.3820    10.0920 H        45  POP39       0.0307
  5227 H11S       -13.4990   -41.8150    10.9290 H        45  POP39       0.0307
  5228 C212       -14.6610   -42.3510     9.1610 C.3      45  POP39      -0.0496
  5229 H12R       -14.9340   -43.2890     8.6570 H        45  POP39       0.0268
  5230 H12S       -13.9070   -41.8430     8.5240 H        45  POP39       0.0268
  5231 C213       -15.9440   -41.5670     9.3980 C.3      45  POP39      -0.0528
  5232 H13R       -15.7010   -40.4840     9.7090 H        45  POP39       0.0265
  5233 H13S       -16.4590   -42.0250    10.1950 H        45  POP39       0.0265
  5234 C214       -16.8240   -41.6170     8.1480 C.3      45  POP39      -0.0530
  5235 H14R       -16.7120   -42.6150     7.6700 H        45  POP39       0.0265
  5236 H14S       -16.3580   -40.9030     7.4800 H        45  POP39       0.0265
  5237 C215       -18.2640   -41.1890     8.2970 C.3      45  POP39      -0.0531
  5238 H15R       -18.3920   -40.3580     8.9700 H        45  POP39       0.0265
  5239 H15S       -18.7590   -41.9710     8.8000 H        45  POP39       0.0265
  5240 C216       -18.9230   -40.7780     6.9470 C.3      45  POP39      -0.0533
  5241 H16R       -18.4790   -39.8670     6.5190 H        45  POP39       0.0265
  5242 H16S       -20.0620   -40.6790     7.1440 H        45  POP39       0.0265
  5243 C217       -18.7810   -41.7950     5.7810 C.3      45  POP39      -0.0559
  5244 H17R       -19.3090   -42.7770     6.0180 H        45  POP39       0.0263
  5245 H17S       -17.6900   -41.9540     5.5370 H        45  POP39       0.0263
  5246 C218       -19.5570   -41.2840     4.5040 C.3      45  POP39      -0.0653
  5247 H18R       -19.4550   -40.1970     4.3670 H        45  POP39       0.0230
  5248 H18S       -20.5960   -41.4990     4.5190 H        45  POP39       0.0230
  5249 H18T       -19.1260   -41.8360     3.6740 H        45  POP39       0.0230
  5250 C33        -18.0350   -31.8360    11.4550 C.3      45  POP39      -0.0441
  5251 H3X        -17.5620   -31.3500    10.5270 H        45  POP39       0.0270
  5252 H3Y        -18.9640   -31.2220    11.6540 H        45  POP39       0.0270
  5253 C34        -18.3920   -33.2090    10.9650 C.3      45  POP39      -0.0526
  5254 H4X        -18.4810   -33.7730    11.9330 H        45  POP39       0.0265
  5255 H4Y        -17.4120   -33.5690    10.4550 H        45  POP39       0.0265
  5256 C35        -19.5490   -33.3010     9.9580 C.3      45  POP39      -0.0530
  5257 H5X        -20.5000   -32.8630    10.4200 H        45  POP39       0.0265
  5258 H5Y        -19.7710   -34.2850     9.5340 H        45  POP39       0.0265
  5259 C36        -19.1720   -32.4150     8.7410 C.3      45  POP39      -0.0531
  5260 H6X        -18.0540   -32.4080     8.4590 H        45  POP39       0.0265
  5261 H6Y        -19.3440   -31.3970     9.1500 H        45  POP39       0.0265
  5262 C37        -20.0850   -32.4680     7.5380 C.3      45  POP39      -0.0531
  5263 H7X        -20.9520   -31.9990     7.8460 H        45  POP39       0.0265
  5264 H7Y        -20.2540   -33.5270     7.3180 H        45  POP39       0.0265
  5265 C38        -19.6250   -31.7920     6.2410 C.3      45  POP39      -0.0531
  5266 H8X        -18.6560   -32.2260     5.9330 H        45  POP39       0.0265
  5267 H8Y        -19.5890   -30.6270     6.3750 H        45  POP39       0.0265
  5268 C39        -20.6660   -31.9950     5.1380 C.3      45  POP39      -0.0531
  5269 H9X        -21.5560   -31.4350     5.4260 H        45  POP39       0.0265
  5270 H9Y        -20.9410   -33.0710     4.9490 H        45  POP39       0.0265
  5271 C310       -20.4230   -31.2610     3.7710 C.3      45  POP39      -0.0531
  5272 H10X       -19.4600   -31.6260     3.3310 H        45  POP39       0.0265
  5273 H10Y       -20.3260   -30.2210     3.9570 H        45  POP39       0.0265
  5274 C311       -21.5690   -31.4900     2.8050 C.3      45  POP39      -0.0531
  5275 H11X       -22.4170   -30.8190     3.2320 H        45  POP39       0.0265
  5276 H11Y       -21.8670   -32.5380     2.7060 H        45  POP39       0.0265
  5277 C312       -21.1550   -30.9620     1.4540 C.3      45  POP39      -0.0531
  5278 H12X       -20.1240   -31.3640     1.1750 H        45  POP39       0.0265
  5279 H12Y       -21.1200   -29.8370     1.5200 H        45  POP39       0.0265
  5280 C313       -22.1650   -31.3200     0.2480 C.3      45  POP39      -0.0531
  5281 H13X       -23.1110   -30.9330     0.5380 H        45  POP39       0.0265
  5282 H13Y       -22.1400   -32.4590     0.1320 H        45  POP39       0.0265
  5283 C314       -21.7660   -30.5880    -1.0970 C.3      45  POP39      -0.0533
  5284 H14X       -20.7460   -30.8950    -1.1940 H        45  POP39       0.0265
  5285 H14Y       -21.6240   -29.5530    -0.8680 H        45  POP39       0.0265
  5286 C315       -22.5830   -30.8380    -2.3680 C.3      45  POP39      -0.0559
  5287 H15X       -23.6090   -30.5550    -2.2320 H        45  POP39       0.0263
  5288 H15Y       -22.6290   -31.9640    -2.6380 H        45  POP39       0.0263
  5289 C316       -22.1700   -30.0010    -3.6360 C.3      45  POP39      -0.0653
  5290 H16X       -22.1580   -28.9590    -3.4940 H        45  POP39       0.0230
  5291 H16Y       -22.6690   -30.3460    -4.5600 H        45  POP39       0.0230
  5292 H16Z       -21.0820   -30.3830    -3.8570 H        45  POP39       0.0230
  5293 N           -9.4480    10.1200    24.7290 N.3      46  POP40       0.2385
  5294 C12         -8.5840    11.3040    24.3890 C.3      46  POP40      -0.0064
  5295 H12A        -8.8310    12.2280    25.0590 H        46  POP40       0.0838
  5296 H12B        -8.7950    11.6960    23.4000 H        46  POP40       0.0838
  5297 C13         -9.4140     9.5670    26.1890 C.3      46  POP40      -0.0417
  5298 H13A        -9.8270     8.5830    26.1970 H        46  POP40       0.0778
  5299 H13B        -8.4350     9.4400    26.5470 H        46  POP40       0.0778
  5300 H13C        -9.9570    10.1610    26.9780 H        46  POP40       0.0778
  5301 C14        -10.8190    10.5730    24.5820 C.3      46  POP40      -0.0417
  5302 H14A       -11.1350    11.2700    25.2500 H        46  POP40       0.0778
  5303 H14B       -11.0070    11.0850    23.6710 H        46  POP40       0.0778
  5304 H14C       -11.4260     9.6240    24.5040 H        46  POP40       0.0778
  5305 C15         -9.2680     8.9790    23.8030 C.3      46  POP40      -0.0417
  5306 H15A       -10.0190     8.2250    24.0860 H        46  POP40       0.0778
  5307 H15B        -8.2600     8.4660    23.8160 H        46  POP40       0.0778
  5308 H15C        -9.4430     9.2150    22.7250 H        46  POP40       0.0778
  5309 C11         -7.0570    11.0810    24.5400 C.3      46  POP40       0.0954
  5310 H11A        -6.7940    10.6290    25.5560 H        46  POP40       0.0618
  5311 H11B        -6.6210    12.0180    24.4910 H        46  POP40       0.0618
  5312 P           -6.2640    10.6910    22.0880 P.3      46  POP40       0.2645
  5313 O13         -4.8540    10.4000    21.8100 O.co2    46  POP40      -0.5105
  5314 O14         -6.6530    12.1410    22.0420 O.co2    46  POP40      -0.5105
  5315 O12         -6.5530    10.2060    23.5690 O.3      46  POP40      -0.3154
  5316 O11         -7.2610     9.7640    21.1760 O.3      46  POP40      -0.3181
  5317 C1          -6.7710     8.4180    20.7790 C.3      46  POP40       0.0845
  5318 HA          -7.6090     7.7060    20.5480 H        46  POP40       0.0591
  5319 HB          -6.1660     8.0320    21.6250 H        46  POP40       0.0591
  5320 C2          -5.8310     8.4920    19.4770 C.3      46  POP40       0.1155
  5321 HS          -5.1080     9.3020    19.5700 H        46  POP40       0.0649
  5322 O21         -6.7230     8.7070    18.3900 O.3      46  POP40      -0.3072
  5323 C21         -6.7520     9.9530    17.8550 C.2      46  POP40       0.2626
  5324 O22         -6.2400    10.9240    18.3100 O.2      46  POP40      -0.2650
  5325 C22         -7.6080     9.8270    16.5620 C.3      46  POP40       0.0332
  5326 H2R         -8.5550     9.1550    16.7900 H        46  POP40       0.0366
  5327 H2S         -6.9970     9.3270    15.8100 H        46  POP40       0.0366
  5328 C3          -5.0730     7.2330    19.2510 C.3      46  POP40       0.0860
  5329 HX          -5.6010     6.2350    19.2770 H        46  POP40       0.0593
  5330 HY          -4.4410     7.1330    20.1560 H        46  POP40       0.0593
  5331 O31         -4.1550     7.3580    18.2130 O.3      46  POP40      -0.3125
  5332 C31         -4.4850     6.7160    17.0780 C.2      46  POP40       0.2622
  5333 O32         -5.2300     5.7640    17.0100 O.2      46  POP40      -0.2650
  5334 C32         -3.5990     7.4290    15.9130 C.3      46  POP40       0.0332
  5335 H2X         -3.8000     6.9670    14.9000 H        46  POP40       0.0366
  5336 H2Y         -2.5400     7.0960    16.1790 H        46  POP40       0.0366
  5337 C23         -8.1830    11.1400    16.1090 C.3      46  POP40      -0.0441
  5338 H3R         -7.2880    11.8560    16.0190 H        46  POP40       0.0270
  5339 H3S         -8.8480    11.5710    16.8700 H        46  POP40       0.0270
  5340 C24         -8.8200    11.0590    14.6500 C.3      46  POP40      -0.0526
  5341 H4R         -9.1990    12.0970    14.3780 H        46  POP40       0.0265
  5342 H4S         -9.6470    10.2980    14.5510 H        46  POP40       0.0265
  5343 C25         -7.7510    10.6880    13.5680 C.3      46  POP40      -0.0530
  5344 H5R         -7.4750     9.6160    13.7580 H        46  POP40       0.0265
  5345 H5S         -6.8370    11.3060    13.6920 H        46  POP40       0.0265
  5346 C26         -8.2890    10.8680    12.1520 C.3      46  POP40      -0.0528
  5347 H6R         -8.9580    11.7950    11.9800 H        46  POP40       0.0265
  5348 H6S         -9.0440    10.0070    12.1610 H        46  POP40       0.0265
  5349 C27         -7.2830    10.5820    11.0170 C.3      46  POP40      -0.0496
  5350 H7R         -6.6070     9.7770    11.4630 H        46  POP40       0.0268
  5351 H7S         -6.7270    11.5610    10.8790 H        46  POP40       0.0268
  5352 C28         -8.0010    10.2210     9.7580 C.3      46  POP40      -0.0348
  5353 H8R         -8.6550    11.0850     9.5230 H        46  POP40       0.0307
  5354 H8S         -8.6140     9.3520     9.9200 H        46  POP40       0.0307
  5355 C29         -6.8070    10.0130     8.8060 C.2      46  POP40      -0.0879
  5356 H91         -6.0760     9.3820     9.2490 H        46  POP40       0.0569
  5357 C210        -6.6010    10.6650     7.7190 C.2      46  POP40      -0.0879
  5358 H101        -5.8210    10.3490     7.0010 H        46  POP40       0.0569
  5359 C211        -7.6240    11.6410     7.1430 C.3      46  POP40      -0.0348
  5360 H11R        -7.2260    12.4280     6.5540 H        46  POP40       0.0307
  5361 H11S        -8.0460    12.2830     7.9370 H        46  POP40       0.0307
  5362 C212        -8.9010    11.1240     6.4600 C.3      46  POP40      -0.0496
  5363 H12R        -9.7370    11.8810     6.3620 H        46  POP40       0.0268
  5364 H12S        -9.4190    10.4380     7.1660 H        46  POP40       0.0268
  5365 C213        -8.5730    10.6160     5.0250 C.3      46  POP40      -0.0528
  5366 H13R        -7.9380     9.7740     5.1350 H        46  POP40       0.0265
  5367 H13S        -7.9840    11.3490     4.4450 H        46  POP40       0.0265
  5368 C214        -9.9160    10.2310     4.2860 C.3      46  POP40      -0.0530
  5369 H14R       -10.4290    11.1670     4.1600 H        46  POP40       0.0265
  5370 H14S       -10.6520     9.6790     5.0380 H        46  POP40       0.0265
  5371 C215        -9.5360     9.4680     3.0090 C.3      46  POP40      -0.0531
  5372 H15R        -9.0240     8.4540     3.2810 H        46  POP40       0.0265
  5373 H15S        -8.7890     9.9310     2.4110 H        46  POP40       0.0265
  5374 C216       -10.7100     9.1260     2.1130 C.3      46  POP40      -0.0533
  5375 H16R       -11.1930    10.0690     1.7210 H        46  POP40       0.0265
  5376 H16S       -11.4200     8.6140     2.7990 H        46  POP40       0.0265
  5377 C217       -10.3070     8.2040     0.9410 C.3      46  POP40      -0.0559
  5378 H17R        -9.6200     8.6210     0.1680 H        46  POP40       0.0263
  5379 H17S       -11.1540     7.8280     0.3930 H        46  POP40       0.0263
  5380 C218        -9.7060     6.8370     1.4140 C.3      46  POP40      -0.0653
  5381 H18R        -9.7510     6.0980     0.6260 H        46  POP40       0.0230
  5382 H18S       -10.3820     6.4090     2.2260 H        46  POP40       0.0230
  5383 H18T        -8.6510     6.9960     1.6750 H        46  POP40       0.0230
  5384 C33         -3.7290     8.9300    15.7780 C.3      46  POP40      -0.0441
  5385 H3X         -3.2950     9.5840    16.6150 H        46  POP40       0.0270
  5386 H3Y         -4.8260     9.1530    15.9110 H        46  POP40       0.0270
  5387 C34         -3.3320     9.5310    14.3890 C.3      46  POP40      -0.0526
  5388 H4X         -3.8220     8.9790    13.5580 H        46  POP40       0.0265
  5389 H4Y         -2.2670     9.3700    14.2110 H        46  POP40       0.0265
  5390 C35         -3.6030    11.0440    14.1970 C.3      46  POP40      -0.0530
  5391 H5X         -3.0390    11.6550    14.8790 H        46  POP40       0.0265
  5392 H5Y         -4.6690    11.1240    14.5480 H        46  POP40       0.0265
  5393 C36         -3.3300    11.3360    12.7190 C.3      46  POP40      -0.0531
  5394 H6X         -3.9770    10.6740    12.1160 H        46  POP40       0.0265
  5395 H6Y         -2.2970    11.0390    12.3300 H        46  POP40       0.0265
  5396 C37         -3.5010    12.8420    12.3660 C.3      46  POP40      -0.0531
  5397 H7X         -2.9230    13.5240    13.0280 H        46  POP40       0.0265
  5398 H7Y         -4.5810    13.1620    12.5450 H        46  POP40       0.0265
  5399 C38         -3.1070    13.1860    10.9430 C.3      46  POP40      -0.0531
  5400 H8X         -2.2350    12.6390    10.5720 H        46  POP40       0.0265
  5401 H8Y         -2.7590    14.2040    10.8770 H        46  POP40       0.0265
  5402 C39         -4.2930    13.1870     9.9000 C.3      46  POP40      -0.0531
  5403 H9X         -5.2740    13.6620    10.2340 H        46  POP40       0.0265
  5404 H9Y         -4.4890    12.0320     9.6760 H        46  POP40       0.0265
  5405 C310        -3.8940    13.9580     8.7010 C.3      46  POP40      -0.0531
  5406 H10X        -2.8750    13.5050     8.3530 H        46  POP40       0.0265
  5407 H10Y        -3.6790    14.9920     8.9580 H        46  POP40       0.0265
  5408 C311        -4.8540    13.8540     7.5260 C.3      46  POP40      -0.0531
  5409 H11X        -5.8400    14.3140     7.6250 H        46  POP40       0.0265
  5410 H11Y        -5.1600    12.8030     7.3480 H        46  POP40       0.0265
  5411 C312        -4.3040    14.4970     6.1760 C.3      46  POP40      -0.0531
  5412 H12X        -4.0350    15.5570     6.3860 H        46  POP40       0.0265
  5413 H12Y        -5.0830    14.4600     5.3790 H        46  POP40       0.0265
  5414 C313        -3.1320    13.7420     5.5680 C.3      46  POP40      -0.0531
  5415 H13X        -2.2550    13.8280     6.2820 H        46  POP40       0.0265
  5416 H13Y        -2.8340    14.2010     4.5730 H        46  POP40       0.0265
  5417 C314        -3.4110    12.2660     5.2660 C.3      46  POP40      -0.0533
  5418 H14X        -3.5660    11.7150     6.1410 H        46  POP40       0.0265
  5419 H14Y        -2.4520    11.8570     4.7500 H        46  POP40       0.0265
  5420 C315        -4.6770    11.9610     4.4500 C.3      46  POP40      -0.0559
  5421 H15X        -4.5680    12.6820     3.5530 H        46  POP40       0.0263
  5422 H15Y        -5.6130    12.1410     4.9700 H        46  POP40       0.0263
  5423 C316        -4.9090    10.6100     3.7640 C.3      46  POP40      -0.0653
  5424 H16X        -5.9880    10.4610     3.6230 H        46  POP40       0.0230
  5425 H16Y        -4.3660     9.8480     4.3070 H        46  POP40       0.0230
  5426 H16Z        -4.4780    10.7010     2.7400 H        46  POP40       0.0230
  5427 N           14.9790    13.1970    25.1030 N.3      47  POP41       0.2385
  5428 C12         15.6350    13.2700    23.7840 C.3      47  POP41      -0.0064
  5429 H12A        15.5620    14.3230    23.3650 H        47  POP41       0.0838
  5430 H12B        15.0960    12.5150    23.1410 H        47  POP41       0.0838
  5431 C13         15.1390    11.8940    25.7110 C.3      47  POP41      -0.0417
  5432 H13A        14.5900    11.0790    25.1730 H        47  POP41       0.0778
  5433 H13B        16.2000    11.6430    25.5130 H        47  POP41       0.0778
  5434 H13C        14.9450    11.7820    26.7840 H        47  POP41       0.0778
  5435 C14         15.6040    14.2860    25.9750 C.3      47  POP41      -0.0417
  5436 H14A        15.0800    14.1780    26.8990 H        47  POP41       0.0778
  5437 H14B        16.6270    14.1660    26.0290 H        47  POP41       0.0778
  5438 H14C        15.5660    15.3310    25.5290 H        47  POP41       0.0778
  5439 C15         13.5490    13.5250    24.9120 C.3      47  POP41      -0.0417
  5440 H15A        13.3880    14.5520    24.4560 H        47  POP41       0.0778
  5441 H15B        13.0420    13.4990    25.8860 H        47  POP41       0.0778
  5442 H15C        13.0060    12.7890    24.3940 H        47  POP41       0.0778
  5443 C11         17.1790    12.9990    23.6950 C.3      47  POP41       0.0954
  5444 H11A        17.5430    12.7450    22.6770 H        47  POP41       0.0618
  5445 H11B        17.5160    12.1040    24.3530 H        47  POP41       0.0618
  5446 P           18.5030    15.3170    23.2930 P.3      47  POP41       0.2645
  5447 O13         19.9870    15.1990    23.2770 O.co2    47  POP41      -0.5105
  5448 O14         17.9570    16.5470    23.8430 O.co2    47  POP41      -0.5105
  5449 O12         17.9020    14.1290    24.1510 O.3      47  POP41      -0.3154
  5450 O11         17.9870    15.0550    21.8860 O.3      47  POP41      -0.3181
  5451 C1          16.9930    15.8220    21.2360 C.3      47  POP41       0.0845
  5452 HA          16.5300    16.6930    21.8170 H        47  POP41       0.0591
  5453 HB          16.1310    15.2060    21.1150 H        47  POP41       0.0591
  5454 C2          17.4280    16.4060    19.8800 C.3      47  POP41       0.1155
  5455 HS          16.4340    16.7690    19.3660 H        47  POP41       0.0649
  5456 O21         18.0360    15.3280    19.1140 O.3      47  POP41      -0.3072
  5457 C21         17.2190    14.4410    18.6110 C.2      47  POP41       0.2626
  5458 O22         15.9680    14.6380    18.4590 O.2      47  POP41      -0.2650
  5459 C22         17.8460    13.1290    18.3310 C.3      47  POP41       0.0332
  5460 H2R         17.0090    12.5100    17.9250 H        47  POP41       0.0366
  5461 H2S         18.2880    12.7250    19.2710 H        47  POP41       0.0366
  5462 C3          18.4240    17.6030    20.0480 C.3      47  POP41       0.0860
  5463 HX          19.3600    17.1840    20.5290 H        47  POP41       0.0593
  5464 HY          18.0040    18.4190    20.6990 H        47  POP41       0.0593
  5465 O31         18.6780    18.1490    18.6770 O.3      47  POP41      -0.3125
  5466 C31         19.8000    17.9290    18.0290 C.2      47  POP41       0.2622
  5467 O32         20.7930    17.3430    18.4130 O.2      47  POP41      -0.2650
  5468 C32         19.5970    18.2900    16.6540 C.3      47  POP41       0.0332
  5469 H2X         19.4300    19.3550    16.5070 H        47  POP41       0.0366
  5470 H2Y         18.6500    17.8300    16.3480 H        47  POP41       0.0366
  5471 C23         18.9150    13.2780    17.2590 C.3      47  POP41      -0.0441
  5472 H3R         19.7940    12.7020    17.4920 H        47  POP41       0.0270
  5473 H3S         19.3240    14.3500    17.2290 H        47  POP41       0.0270
  5474 C24         18.4160    13.0280    15.8020 C.3      47  POP41      -0.0526
  5475 H4R         17.7570    13.9190    15.5790 H        47  POP41       0.0265
  5476 H4S         17.9110    12.0310    15.8000 H        47  POP41       0.0265
  5477 C25         19.6900    13.2120    14.9350 C.3      47  POP41      -0.0530
  5478 H5R         20.4020    12.3750    15.0230 H        47  POP41       0.0265
  5479 H5S         20.3160    14.1850    15.2320 H        47  POP41       0.0265
  5480 C26         19.3010    13.3580    13.3760 C.3      47  POP41      -0.0528
  5481 H6R         18.6280    14.2280    13.2970 H        47  POP41       0.0265
  5482 H6S         18.7990    12.4560    12.9960 H        47  POP41       0.0265
  5483 C27         20.5890    13.7490    12.5800 C.3      47  POP41      -0.0496
  5484 H7R         21.3850    13.0170    12.7780 H        47  POP41       0.0268
  5485 H7S         20.8450    14.7680    12.9360 H        47  POP41       0.0268
  5486 C28         20.2710    13.8170    11.1050 C.3      47  POP41      -0.0348
  5487 H8R         20.9470    14.6740    10.7530 H        47  POP41       0.0307
  5488 H8S         19.2890    14.2760    11.0710 H        47  POP41       0.0307
  5489 C29         20.3750    12.4940    10.3390 C.2      47  POP41      -0.0879
  5490 H91         19.4370    11.8640    10.4510 H        47  POP41       0.0569
  5491 C210        21.3920    12.1340     9.5660 C.2      47  POP41      -0.0879
  5492 H101        21.3210    11.1020     9.0950 H        47  POP41       0.0569
  5493 C211        22.6500    12.8110     9.1540 C.3      47  POP41      -0.0348
  5494 H11R        23.5790    12.4610     9.8070 H        47  POP41       0.0307
  5495 H11S        22.5310    13.8760     9.2170 H        47  POP41       0.0307
  5496 C212        23.0660    12.4180     7.7300 C.3      47  POP41      -0.0496
  5497 H12R        23.0370    11.3770     7.5710 H        47  POP41       0.0268
  5498 H12S        24.1010    12.7440     7.4390 H        47  POP41       0.0268
  5499 C213        22.1560    13.0710     6.6290 C.3      47  POP41      -0.0528
  5500 H13R        22.1140    14.1570     6.8140 H        47  POP41       0.0265
  5501 H13S        21.1480    12.6650     6.7140 H        47  POP41       0.0265
  5502 C214        22.6950    12.7500     5.2150 C.3      47  POP41      -0.0530
  5503 H14R        23.7230    12.9880     5.0790 H        47  POP41       0.0265
  5504 H14S        22.0710    13.2240     4.4510 H        47  POP41       0.0265
  5505 C215        22.5530    11.2030     4.9710 C.3      47  POP41      -0.0531
  5506 H15R        21.5960    10.8740     5.3850 H        47  POP41       0.0265
  5507 H15S        23.4750    10.7570     5.5330 H        47  POP41       0.0265
  5508 C216        22.5470    10.9880     3.4640 C.3      47  POP41      -0.0533
  5509 H16R        23.5970    11.2020     3.2150 H        47  POP41       0.0265
  5510 H16S        21.8220    11.7190     3.0450 H        47  POP41       0.0265
  5511 C217        22.2390     9.6030     2.9470 C.3      47  POP41      -0.0559
  5512 H17R        21.2540     9.2920     3.3190 H        47  POP41       0.0263
  5513 H17S        23.0240     8.9620     3.3990 H        47  POP41       0.0263
  5514 C218        22.4210     9.5570     1.4680 C.3      47  POP41      -0.0653
  5515 H18R        22.1510     8.6520     0.9800 H        47  POP41       0.0230
  5516 H18S        21.6660    10.1940     1.0250 H        47  POP41       0.0230
  5517 H18T        23.4850     9.8330     1.1490 H        47  POP41       0.0230
  5518 C33         20.6620    17.8000    15.6420 C.3      47  POP41      -0.0441
  5519 H3X         21.0210    16.7940    15.8860 H        47  POP41       0.0270
  5520 H3Y         21.6200    18.4290    15.7030 H        47  POP41       0.0270
  5521 C34         20.2550    17.9950    14.2020 C.3      47  POP41      -0.0526
  5522 H4X         19.8280    19.0090    14.0290 H        47  POP41       0.0265
  5523 H4Y         19.5210    17.2370    13.9600 H        47  POP41       0.0265
  5524 C35         21.4670    17.8220    13.2160 C.3      47  POP41      -0.0530
  5525 H5X         22.1150    16.8820    13.3860 H        47  POP41       0.0265
  5526 H5Y         22.2190    18.6120    13.4170 H        47  POP41       0.0265
  5527 C36         21.1440    17.8840    11.7000 C.3      47  POP41      -0.0531
  5528 H6X         20.6720    18.8560    11.4790 H        47  POP41       0.0265
  5529 H6Y         20.3880    17.0450    11.4610 H        47  POP41       0.0265
  5530 C37         22.3540    17.5230    10.8570 C.3      47  POP41      -0.0531
  5531 H7X         22.6180    16.5150    11.1420 H        47  POP41       0.0265
  5532 H7Y         23.2430    18.1800    11.0480 H        47  POP41       0.0265
  5533 C38         22.0480    17.5970     9.3150 C.3      47  POP41      -0.0531
  5534 H8X         21.8250    18.6770     9.0490 H        47  POP41       0.0265
  5535 H8Y         21.3170    16.7990     9.0760 H        47  POP41       0.0265
  5536 C39         23.2820    17.2790     8.4460 C.3      47  POP41      -0.0531
  5537 H9X         23.6820    16.2970     8.7130 H        47  POP41       0.0265
  5538 H9Y         24.0560    18.0570     8.7410 H        47  POP41       0.0265
  5539 C310        22.9400    17.3970     6.9520 C.3      47  POP41      -0.0531
  5540 H10X        22.7860    18.4640     6.6090 H        47  POP41       0.0265
  5541 H10Y        22.0490    16.7160     6.7730 H        47  POP41       0.0265
  5542 C311        24.0820    16.7250     6.1500 C.3      47  POP41      -0.0531
  5543 H11X        24.4480    15.8280     6.7540 H        47  POP41       0.0265
  5544 H11Y        24.8910    17.4330     6.2160 H        47  POP41       0.0265
  5545 C312        23.8680    16.3490     4.7000 C.3      47  POP41      -0.0531
  5546 H12X        23.7890    17.2220     4.0610 H        47  POP41       0.0265
  5547 H12Y        22.8780    15.8890     4.5770 H        47  POP41       0.0265
  5548 C313        25.0780    15.6440     4.1780 C.3      47  POP41      -0.0531
  5549 H13X        25.3480    14.7500     4.7690 H        47  POP41       0.0265
  5550 H13Y        26.0220    16.2860     4.4070 H        47  POP41       0.0265
  5551 C314        24.9880    15.1350     2.7510 C.3      47  POP41      -0.0533
  5552 H14X        25.0970    15.9460     2.0090 H        47  POP41       0.0265
  5553 H14Y        24.0360    14.6100     2.6530 H        47  POP41       0.0265
  5554 C315        26.0730    14.0930     2.3410 C.3      47  POP41      -0.0559
  5555 H15X        25.8080    13.6020     1.4230 H        47  POP41       0.0263
  5556 H15Y        26.1370    13.2990     3.2070 H        47  POP41       0.0263
  5557 C316        27.4330    14.7950     2.1110 C.3      47  POP41      -0.0653
  5558 H16X        27.3620    15.4360     1.3070 H        47  POP41       0.0230
  5559 H16Y        28.1730    13.9590     1.9680 H        47  POP41       0.0230
  5560 H16Z        27.7880    15.3320     2.9800 H        47  POP41       0.0230
  5561 N          -15.7850    10.3420    24.7690 N.3      48  POP42       0.2385
  5562 C12        -15.9400    10.6220    23.2920 C.3      48  POP42      -0.0064
  5563 H12A       -15.6820    11.5930    22.8610 H        48  POP42       0.0838
  5564 H12B       -17.0180    10.5160    23.0190 H        48  POP42       0.0838
  5565 C13        -16.0370     8.9260    25.1410 C.3      48  POP42      -0.0417
  5566 H13A       -15.8230     8.7590    26.1870 H        48  POP42       0.0778
  5567 H13B       -17.0860     8.6770    24.8750 H        48  POP42       0.0778
  5568 H13C       -15.2600     8.2830    24.5880 H        48  POP42       0.0778
  5569 C14        -14.4500    10.7790    25.0970 C.3      48  POP42      -0.0417
  5570 H14A       -14.3370    10.8310    26.2110 H        48  POP42       0.0778
  5571 H14B       -13.7590     9.9660    24.7770 H        48  POP42       0.0778
  5572 H14C       -14.1260    11.7220    24.7010 H        48  POP42       0.0778
  5573 C15        -16.6660    11.1570    25.6770 C.3      48  POP42      -0.0417
  5574 H15A       -16.3720    12.1990    25.7340 H        48  POP42       0.0778
  5575 H15B       -16.7090    10.7980    26.6960 H        48  POP42       0.0778
  5576 H15C       -17.6890    11.1600    25.2240 H        48  POP42       0.0778
  5577 C11        -15.1110     9.6700    22.3090 C.3      48  POP42       0.0954
  5578 H11A       -15.5270    10.0530    21.3810 H        48  POP42       0.0618
  5579 H11B       -15.4050     8.6070    22.4150 H        48  POP42       0.0618
  5580 P          -12.6110     8.9240    21.7220 P.3      48  POP42       0.2645
  5581 O13        -12.1980     8.0750    22.8450 O.co2    48  POP42      -0.5105
  5582 O14        -11.6210     9.7880    21.0150 O.co2    48  POP42      -0.5105
  5583 O12        -13.7310     9.8720    22.3370 O.3      48  POP42      -0.3154
  5584 O11        -13.4370     8.0990    20.6770 O.3      48  POP42      -0.3181
  5585 C1         -13.9420     8.7630    19.5310 C.3      48  POP42       0.0845
  5586 HA         -13.4810     9.7530    19.3790 H        48  POP42       0.0591
  5587 HB         -15.0230     8.8230    19.5530 H        48  POP42       0.0591
  5588 C2         -13.5160     8.2010    18.1190 C.3      48  POP42       0.1155
  5589 HS         -14.0690     8.7950    17.4040 H        48  POP42       0.0649
  5590 O21        -13.8530     6.8340    18.0380 O.3      48  POP42      -0.3072
  5591 C21        -15.1110     6.5590    17.8530 C.2      48  POP42       0.2626
  5592 O22        -16.0210     7.2810    18.0350 O.2      48  POP42      -0.2650
  5593 C22        -15.3340     5.1000    17.5110 C.3      48  POP42       0.0332
  5594 H2R        -16.2900     4.8800    18.0040 H        48  POP42       0.0366
  5595 H2S        -14.4510     4.5200    17.9990 H        48  POP42       0.0366
  5596 C3         -12.0030     8.3900    17.8400 C.3      48  POP42       0.0860
  5597 HX         -11.4720     7.6760    18.5490 H        48  POP42       0.0593
  5598 HY         -11.7730     9.3990    18.1040 H        48  POP42       0.0593
  5599 O31        -11.5650     8.0790    16.4380 O.3      48  POP42      -0.3125
  5600 C31        -12.0880     8.9520    15.6000 C.2      48  POP42       0.2622
  5601 O32        -12.5380    10.0180    15.9120 O.2      48  POP42      -0.2650
  5602 C32        -11.8230     8.4490    14.1880 C.3      48  POP42       0.0332
  5603 H2X        -11.5320     7.4120    14.2100 H        48  POP42       0.0366
  5604 H2Y        -11.0350     9.1570    13.7300 H        48  POP42       0.0366
  5605 C23        -15.5770     4.6750    16.0250 C.3      48  POP42      -0.0441
  5606 H3R        -16.4140     5.3590    15.6710 H        48  POP42       0.0270
  5607 H3S        -15.7680     3.6110    15.8540 H        48  POP42       0.0270
  5608 C24        -14.3420     5.0200    15.1780 C.3      48  POP42      -0.0526
  5609 H4R        -13.5280     4.3550    15.5410 H        48  POP42       0.0265
  5610 H4S        -14.0390     6.0770    15.3840 H        48  POP42       0.0265
  5611 C25        -14.5650     4.7880    13.6960 C.3      48  POP42      -0.0530
  5612 H5R        -15.0540     5.6890    13.3310 H        48  POP42       0.0265
  5613 H5S        -15.1390     3.8190    13.3950 H        48  POP42       0.0265
  5614 C26        -13.1550     4.7190    13.0780 C.3      48  POP42      -0.0528
  5615 H6R        -12.6600     3.8450    13.4220 H        48  POP42       0.0265
  5616 H6S        -12.5020     5.4980    13.4070 H        48  POP42       0.0265
  5617 C27        -13.2060     4.6880    11.5480 C.3      48  POP42      -0.0496
  5618 H7R        -12.2970     5.2100    11.0760 H        48  POP42       0.0268
  5619 H7S        -13.9290     5.3790    11.3550 H        48  POP42       0.0268
  5620 C28        -13.5530     3.2910    10.8480 C.3      48  POP42      -0.0348
  5621 H8R        -14.5790     3.1160    11.0810 H        48  POP42       0.0307
  5622 H8S        -12.9620     2.4010    11.2020 H        48  POP42       0.0307
  5623 C29        -13.3930     3.4660     9.3740 C.2      48  POP42      -0.0879
  5624 H91        -12.3150     3.8300     9.1020 H        48  POP42       0.0569
  5625 C210       -14.3360     3.6600     8.4430 C.2      48  POP42      -0.0879
  5626 H101       -13.8940     3.8570     7.4230 H        48  POP42       0.0569
  5627 C211       -15.8310     3.5220     8.4330 C.3      48  POP42      -0.0348
  5628 H11R       -16.2590     3.0660     9.3000 H        48  POP42       0.0307
  5629 H11S       -16.1310     2.8810     7.5480 H        48  POP42       0.0307
  5630 C212       -16.4360     5.0050     8.2290 C.3      48  POP42      -0.0496
  5631 H12R       -15.9270     5.6190     7.4090 H        48  POP42       0.0268
  5632 H12S       -16.2550     5.6440     9.1840 H        48  POP42       0.0268
  5633 C213       -17.9400     4.9670     8.0560 C.3      48  POP42      -0.0528
  5634 H13R       -18.3650     5.9490     7.8930 H        48  POP42       0.0265
  5635 H13S       -18.4300     4.4670     8.8710 H        48  POP42       0.0265
  5636 C214       -18.3610     4.2290     6.7270 C.3      48  POP42      -0.0530
  5637 H14R       -18.0130     3.2110     6.8460 H        48  POP42       0.0265
  5638 H14S       -17.8680     4.6950     5.8340 H        48  POP42       0.0265
  5639 C215       -19.8430     4.4640     6.4320 C.3      48  POP42      -0.0531
  5640 H15R       -20.0130     5.5860     6.6240 H        48  POP42       0.0265
  5641 H15S       -20.4440     3.9250     7.2210 H        48  POP42       0.0265
  5642 C216       -20.2910     4.2830     4.9390 C.3      48  POP42      -0.0533
  5643 H16R       -19.6540     4.9080     4.2600 H        48  POP42       0.0265
  5644 H16S       -21.2150     4.9260     4.8050 H        48  POP42       0.0265
  5645 C217       -20.4200     2.8910     4.2820 C.3      48  POP42      -0.0559
  5646 H17R       -20.3180     2.1290     4.9860 H        48  POP42       0.0263
  5647 H17S       -19.5400     2.7930     3.6150 H        48  POP42       0.0263
  5648 C218       -21.6890     2.6110     3.5150 C.3      48  POP42      -0.0653
  5649 H18R       -21.7870     3.4390     2.8000 H        48  POP42       0.0230
  5650 H18S       -22.4680     2.5670     4.2200 H        48  POP42       0.0230
  5651 H18T       -21.6880     1.6240     3.0160 H        48  POP42       0.0230
  5652 C33        -13.1350     8.5740    13.3110 C.3      48  POP42      -0.0441
  5653 H3X        -13.5810     9.6040    13.2980 H        48  POP42       0.0270
  5654 H3Y        -13.7740     7.8590    13.8380 H        48  POP42       0.0270
  5655 C34        -12.9320     8.1730    11.8980 C.3      48  POP42      -0.0526
  5656 H4X        -13.8380     7.7690    11.4930 H        48  POP42       0.0265
  5657 H4Y        -12.2190     7.2680    11.9860 H        48  POP42       0.0265
  5658 C35        -12.3140     9.2780    11.1410 C.3      48  POP42      -0.0530
  5659 H5X        -11.4560     9.6810    11.7120 H        48  POP42       0.0265
  5660 H5Y        -13.0300    10.0920    11.0520 H        48  POP42       0.0265
  5661 C36        -11.6690     8.8770     9.7870 C.3      48  POP42      -0.0531
  5662 H6X        -10.8570     8.1670    10.0170 H        48  POP42       0.0265
  5663 H6Y        -11.2440     9.8050     9.3030 H        48  POP42       0.0265
  5664 C37        -12.6120     8.0340     8.8430 C.3      48  POP42      -0.0531
  5665 H7X        -13.4080     8.8650     8.7420 H        48  POP42       0.0265
  5666 H7Y        -13.1100     7.1480     9.1750 H        48  POP42       0.0265
  5667 C38        -11.9530     7.9250     7.4900 C.3      48  POP42      -0.0531
  5668 H8X        -10.9540     7.3440     7.6050 H        48  POP42       0.0265
  5669 H8Y        -11.6150     8.9090     7.1250 H        48  POP42       0.0265
  5670 C39        -12.7600     7.3170     6.2910 C.3      48  POP42      -0.0531
  5671 H9X        -13.2720     8.0600     5.7070 H        48  POP42       0.0265
  5672 H9Y        -13.4830     6.6570     6.7570 H        48  POP42       0.0265
  5673 C310       -11.9540     6.4670     5.2920 C.3      48  POP42      -0.0531
  5674 H10X       -10.8740     6.5600     5.4510 H        48  POP42       0.0265
  5675 H10Y       -12.1690     6.8380     4.2150 H        48  POP42       0.0265
  5676 C311       -12.4280     4.9760     5.2090 C.3      48  POP42      -0.0531
  5677 H11X       -13.5400     4.9300     5.0300 H        48  POP42       0.0265
  5678 H11Y       -12.3980     4.4130     6.1700 H        48  POP42       0.0265
  5679 C312       -11.8190     4.0530     4.1690 C.3      48  POP42      -0.0531
  5680 H12X       -11.8050     4.4300     3.0550 H        48  POP42       0.0265
  5681 H12Y       -12.4480     3.1170     4.1670 H        48  POP42       0.0265
  5682 C313       -10.3250     3.7900     4.6030 C.3      48  POP42      -0.0531
  5683 H13X       -10.3550     3.5830     5.6450 H        48  POP42       0.0265
  5684 H13Y        -9.7980     4.7570     4.4770 H        48  POP42       0.0265
  5685 C314        -9.7100     2.6970     3.7460 C.3      48  POP42      -0.0533
  5686 H14X        -9.9360     2.8730     2.6580 H        48  POP42       0.0265
  5687 H14Y       -10.2040     1.7140     4.0460 H        48  POP42       0.0265
  5688 C315        -8.2190     2.5290     3.9130 C.3      48  POP42      -0.0559
  5689 H15X        -7.8850     2.6270     5.0290 H        48  POP42       0.0263
  5690 H15Y        -7.7910     3.4180     3.4300 H        48  POP42       0.0263
  5691 C316        -7.7570     1.2610     3.2720 C.3      48  POP42      -0.0653
  5692 H16X        -7.9740     0.3520     3.8470 H        48  POP42       0.0230
  5693 H16Y        -6.6100     1.3200     3.2010 H        48  POP42       0.0230
  5694 H16Z        -8.2110     1.2530     2.1900 H        48  POP42       0.0230
  5695 N          -22.7250    -8.3060    24.1060 N.3      49  POP43       0.2385
  5696 C12        -23.1540    -6.8700    23.8480 C.3      49  POP43      -0.0064
  5697 H12A       -22.7920    -6.2300    24.6810 H        49  POP43       0.0838
  5698 H12B       -24.2720    -6.7340    23.9530 H        49  POP43       0.0838
  5699 C13        -23.3900    -9.2290    23.1460 C.3      49  POP43      -0.0417
  5700 H13A       -24.5080    -9.1190    23.1980 H        49  POP43       0.0778
  5701 H13B       -23.1810    -9.0930    22.0980 H        49  POP43       0.0778
  5702 H13C       -23.3010   -10.2410    23.4560 H        49  POP43       0.0778
  5703 C14        -21.2010    -8.4230    23.7730 C.3      49  POP43      -0.0417
  5704 H14A       -20.8470    -9.4140    24.1390 H        49  POP43       0.0778
  5705 H14B       -21.1520    -8.3250    22.6570 H        49  POP43       0.0778
  5706 H14C       -20.6950    -7.6540    24.2850 H        49  POP43       0.0778
  5707 C15        -22.9790    -8.7610    25.4430 C.3      49  POP43      -0.0417
  5708 H15A       -24.0440    -8.7880    25.5970 H        49  POP43       0.0778
  5709 H15B       -22.6180    -7.9780    26.1500 H        49  POP43       0.0778
  5710 H15C       -22.5850    -9.7480    25.6230 H        49  POP43       0.0778
  5711 C11        -22.6930    -6.2060    22.5890 C.3      49  POP43       0.0954
  5712 H11A       -21.5780    -6.3150    22.4570 H        49  POP43       0.0618
  5713 H11B       -22.9770    -5.0930    22.6680 H        49  POP43       0.0618
  5714 P          -24.9450    -6.3290    21.1720 P.3      49  POP43       0.2645
  5715 O13        -25.4380    -5.5920    22.3540 O.co2    49  POP43      -0.5105
  5716 O14        -25.7640    -7.5220    20.8130 O.co2    49  POP43      -0.5105
  5717 O12        -23.3620    -6.7280    21.4040 O.3      49  POP43      -0.3154
  5718 O11        -24.8890    -5.3970    19.9740 O.3      49  POP43      -0.3181
  5719 C1         -23.6290    -4.8120    19.5320 C.3      49  POP43       0.0845
  5720 HA         -22.6370    -5.2820    19.8980 H        49  POP43       0.0591
  5721 HB         -23.6490    -3.7050    19.9090 H        49  POP43       0.0591
  5722 C2         -23.4880    -4.6210    17.9830 C.3      49  POP43       0.1155
  5723 HS         -24.0780    -3.6920    17.7890 H        49  POP43       0.0649
  5724 O21        -24.0270    -5.8010    17.3770 O.3      49  POP43      -0.3072
  5725 C21        -24.4940    -5.6010    16.1690 C.2      49  POP43       0.2626
  5726 O22        -24.6480    -4.5020    15.6600 O.2      49  POP43      -0.2650
  5727 C22        -24.8780    -6.9630    15.5040 C.3      49  POP43       0.0332
  5728 H2R        -25.9210    -7.2800    15.8390 H        49  POP43       0.0366
  5729 H2S        -24.0970    -7.6400    15.8390 H        49  POP43       0.0366
  5730 C3         -21.9810    -4.4950    17.6670 C.3      49  POP43       0.0860
  5731 HX         -21.4920    -5.3180    18.1510 H        49  POP43       0.0593
  5732 HY         -21.5870    -3.5700    18.1820 H        49  POP43       0.0593
  5733 O31        -21.7800    -4.4920    16.2310 O.3      49  POP43      -0.3125
  5734 C31        -21.8890    -3.2990    15.7110 C.2      49  POP43       0.2622
  5735 O32        -22.2710    -2.2710    16.2590 O.2      49  POP43      -0.2650
  5736 C32        -21.5350    -3.4100    14.3150 C.3      49  POP43       0.0332
  5737 H2X        -22.1530    -4.3210    13.9090 H        49  POP43       0.0366
  5738 H2Y        -20.4180    -3.6580    14.2680 H        49  POP43       0.0366
  5739 C23        -25.1030    -6.7420    13.9110 C.3      49  POP43      -0.0441
  5740 H3R        -24.1690    -6.1330    13.6220 H        49  POP43       0.0270
  5741 H3S        -25.9920    -6.1350    13.8870 H        49  POP43       0.0270
  5742 C24        -25.2500    -7.9400    13.0280 C.3      49  POP43      -0.0526
  5743 H4R        -26.3190    -8.2790    12.9830 H        49  POP43       0.0265
  5744 H4S        -24.7290    -8.7680    13.5020 H        49  POP43       0.0265
  5745 C25        -24.5960    -7.7180    11.6430 C.3      49  POP43      -0.0530
  5746 H5R        -23.4790    -7.5370    11.7730 H        49  POP43       0.0265
  5747 H5S        -25.0580    -6.8010    11.0800 H        49  POP43       0.0265
  5748 C26        -24.8700    -8.9120    10.7770 C.3      49  POP43      -0.0528
  5749 H6R        -25.9050    -9.1070    10.5640 H        49  POP43       0.0265
  5750 H6S        -24.5280    -9.8180    11.3610 H        49  POP43       0.0265
  5751 C27        -23.9970    -8.9780     9.5550 C.3      49  POP43      -0.0496
  5752 H7R        -23.0800    -8.5420     9.7450 H        49  POP43       0.0268
  5753 H7S        -24.5270    -8.5140     8.7770 H        49  POP43       0.0268
  5754 C28        -23.7030   -10.4700     9.1450 C.3      49  POP43      -0.0348
  5755 H8R        -23.0850   -10.9110     9.9560 H        49  POP43       0.0307
  5756 H8S        -23.0810   -10.4030     8.2430 H        49  POP43       0.0307
  5757 C29        -24.8690   -11.3100     8.9060 C.2      49  POP43      -0.0879
  5758 H91        -25.2200   -11.7320     9.8550 H        49  POP43       0.0569
  5759 C210       -25.4160   -11.7850     7.8370 C.2      49  POP43      -0.0879
  5760 H101       -26.2510   -12.5030     7.9390 H        49  POP43       0.0569
  5761 C211       -24.8700   -11.7200     6.4280 C.3      49  POP43      -0.0348
  5762 H11R       -24.4640   -10.6330     6.2910 H        49  POP43       0.0307
  5763 H11S       -25.7050   -11.8570     5.7250 H        49  POP43       0.0307
  5764 C212       -23.6240   -12.5330     6.0580 C.3      49  POP43      -0.0496
  5765 H12R       -23.7490   -13.5470     6.2450 H        49  POP43       0.0268
  5766 H12S       -22.8620   -12.0550     6.7500 H        49  POP43       0.0268
  5767 C213       -23.0410   -12.4210     4.6420 C.3      49  POP43      -0.0528
  5768 H13R       -22.2340   -13.0870     4.5530 H        49  POP43       0.0265
  5769 H13S       -22.4200   -11.4300     4.5130 H        49  POP43       0.0265
  5770 C214       -24.0190   -12.3890     3.4160 C.3      49  POP43      -0.0530
  5771 H14R       -24.6460   -11.5370     3.5460 H        49  POP43       0.0265
  5772 H14S       -24.6950   -13.3180     3.4450 H        49  POP43       0.0265
  5773 C215       -23.2780   -12.3330     2.0750 C.3      49  POP43      -0.0531
  5774 H15R       -22.4670   -11.5300     2.1940 H        49  POP43       0.0265
  5775 H15S       -23.7480   -11.8940     1.1760 H        49  POP43       0.0265
  5776 C216       -22.6000   -13.6690     1.7760 C.3      49  POP43      -0.0533
  5777 H16R       -23.3720   -14.3800     1.6140 H        49  POP43       0.0265
  5778 H16S       -22.0500   -14.1470     2.6140 H        49  POP43       0.0265
  5779 C217       -21.5500   -13.6510     0.6800 C.3      49  POP43      -0.0559
  5780 H17R       -20.9380   -12.7810     0.9370 H        49  POP43       0.0263
  5781 H17S       -22.0460   -13.4440    -0.3090 H        49  POP43       0.0263
  5782 C218       -20.8030   -14.9040     0.3570 C.3      49  POP43      -0.0653
  5783 H18R       -21.4610   -15.6520    -0.1360 H        49  POP43       0.0230
  5784 H18S       -20.4220   -15.4230     1.2520 H        49  POP43       0.0230
  5785 H18T       -19.9010   -14.7300    -0.2260 H        49  POP43       0.0230
  5786 C33        -21.5580    -2.1460    13.4780 C.3      49  POP43      -0.0441
  5787 H3X        -20.7570    -1.5440    13.9530 H        49  POP43       0.0270
  5788 H3Y        -22.4820    -1.5540    13.5210 H        49  POP43       0.0270
  5789 C34        -21.1700    -2.5430    12.0180 C.3      49  POP43      -0.0526
  5790 H4X        -22.0130    -3.1150    11.5770 H        49  POP43       0.0265
  5791 H4Y        -20.2390    -3.1240    12.1570 H        49  POP43       0.0265
  5792 C35        -20.7010    -1.3700    11.1160 C.3      49  POP43      -0.0530
  5793 H5X        -19.7760    -1.0550    11.5130 H        49  POP43       0.0265
  5794 H5Y        -21.3360    -0.4960    10.9740 H        49  POP43       0.0265
  5795 C36        -20.3610    -1.7920     9.6780 C.3      49  POP43      -0.0531
  5796 H6X        -21.2930    -1.5930     9.0500 H        49  POP43       0.0265
  5797 H6Y        -20.0670    -2.8890     9.6330 H        49  POP43       0.0265
  5798 C37        -19.1890    -1.0120     9.0280 C.3      49  POP43      -0.0531
  5799 H7X        -18.2520    -1.4460     9.3610 H        49  POP43       0.0265
  5800 H7Y        -19.1070     0.1290     9.1720 H        49  POP43       0.0265
  5801 C38        -19.1510    -1.0890     7.5220 C.3      49  POP43      -0.0531
  5802 H8X        -19.9400    -0.4490     7.1380 H        49  POP43       0.0265
  5803 H8Y        -19.3890    -2.1480     7.2240 H        49  POP43       0.0265
  5804 C39        -17.7790    -0.8390     6.9040 C.3      49  POP43      -0.0531
  5805 H9X        -17.0100    -1.2390     7.6530 H        49  POP43       0.0265
  5806 H9Y        -17.7660     0.2640     6.7950 H        49  POP43       0.0265
  5807 C310       -17.4520    -1.6100     5.6550 C.3      49  POP43      -0.0531
  5808 H10X       -18.1230    -1.2100     4.9050 H        49  POP43       0.0265
  5809 H10Y       -17.6930    -2.6420     5.9290 H        49  POP43       0.0265
  5810 C311       -16.1010    -1.6950     5.0300 C.3      49  POP43      -0.0531
  5811 H11X       -16.1210    -2.2480     4.0590 H        49  POP43       0.0265
  5812 H11Y       -15.3970    -2.3180     5.6970 H        49  POP43       0.0265
  5813 C312       -15.5380    -0.3080     4.9090 C.3      49  POP43      -0.0531
  5814 H12X       -14.4810    -0.3070     4.5120 H        49  POP43       0.0265
  5815 H12Y       -15.5550     0.2760     5.8750 H        49  POP43       0.0265
  5816 C313       -16.3110     0.5870     3.9800 C.3      49  POP43      -0.0531
  5817 H13X       -17.3560     0.8480     4.3200 H        49  POP43       0.0265
  5818 H13Y       -16.4700     0.0020     3.0530 H        49  POP43       0.0265
  5819 C314       -15.5210     1.9380     3.7330 C.3      49  POP43      -0.0533
  5820 H14X       -14.4470     1.5690     3.6100 H        49  POP43       0.0265
  5821 H14Y       -15.6190     2.6070     4.6230 H        49  POP43       0.0265
  5822 C315       -16.0690     2.7320     2.5390 C.3      49  POP43      -0.0559
  5823 H15X       -17.1350     2.9250     2.7740 H        49  POP43       0.0263
  5824 H15Y       -16.0580     2.0760     1.6650 H        49  POP43       0.0263
  5825 C316       -15.2430     4.0580     2.2750 C.3      49  POP43      -0.0653
  5826 H16X       -15.9240     4.7100     1.7510 H        49  POP43       0.0230
  5827 H16Y       -14.2850     3.9450     1.7960 H        49  POP43       0.0230
  5828 H16Z       -15.2260     4.5320     3.2910 H        49  POP43       0.0230
  5829 N          -16.5580    17.3670    25.6500 N.3      50  POP44       0.2385
  5830 C12        -17.7590    17.0820    24.7640 C.3      50  POP44      -0.0064
  5831 H12A       -17.9540    17.9410    24.0960 H        50  POP44       0.0838
  5832 H12B       -18.6850    17.0270    25.3530 H        50  POP44       0.0838
  5833 C13        -15.3110    17.6070    24.8890 C.3      50  POP44      -0.0417
  5834 H13A       -14.4180    17.6190    25.5630 H        50  POP44       0.0778
  5835 H13B       -15.2240    16.7890    24.2690 H        50  POP44       0.0778
  5836 H13C       -15.4090    18.5140    24.2510 H        50  POP44       0.0778
  5837 C14        -16.8340    18.5600    26.5580 C.3      50  POP44      -0.0417
  5838 H14A       -16.6010    19.5090    26.0810 H        50  POP44       0.0778
  5839 H14B       -17.8440    18.6590    27.0330 H        50  POP44       0.0778
  5840 H14C       -16.0920    18.6290    27.3370 H        50  POP44       0.0778
  5841 C15        -16.2930    16.2890    26.5150 C.3      50  POP44      -0.0417
  5842 H15A       -17.1690    15.9860    27.0550 H        50  POP44       0.0778
  5843 H15B       -15.5360    16.6170    27.1980 H        50  POP44       0.0778
  5844 H15C       -15.8130    15.4020    26.1610 H        50  POP44       0.0778
  5845 C11        -17.7320    15.8010    23.8890 C.3      50  POP44       0.0954
  5846 H11A       -18.7250    15.8050    23.3240 H        50  POP44       0.0618
  5847 H11B       -17.9590    14.9060    24.5000 H        50  POP44       0.0618
  5848 P          -16.7100    16.4070    21.5990 P.3      50  POP44       0.2645
  5849 O13        -16.0380    15.4540    20.6850 O.co2    50  POP44      -0.5105
  5850 O14        -16.1250    17.7580    21.8680 O.co2    50  POP44      -0.5105
  5851 O12        -16.6760    15.6380    22.9800 O.3      50  POP44      -0.3154
  5852 O11        -18.2360    16.5780    21.3220 O.3      50  POP44      -0.3181
  5853 C1         -18.9710    15.8170    20.3150 C.3      50  POP44       0.0845
  5854 HA         -20.0360    15.5760    20.5450 H        50  POP44       0.0591
  5855 HB         -18.4930    14.7980    20.2320 H        50  POP44       0.0591
  5856 C2         -18.9670    16.4020    18.8860 C.3      50  POP44       0.1155
  5857 HS         -19.7690    15.9500    18.2640 H        50  POP44       0.0649
  5858 O21        -17.6240    16.2570    18.2260 O.3      50  POP44      -0.3072
  5859 C21        -17.3610    15.0550    17.8550 C.2      50  POP44       0.2626
  5860 O22        -18.0680    14.1240    17.9170 O.2      50  POP44      -0.2650
  5861 C22        -15.9100    15.1260    17.1280 C.3      50  POP44       0.0332
  5862 H2R        -15.1930    14.8970    17.9170 H        50  POP44       0.0366
  5863 H2S        -15.8590    16.1440    16.8190 H        50  POP44       0.0366
  5864 C3         -19.2930    17.8740    18.9690 C.3      50  POP44       0.0860
  5865 HX         -18.5680    18.4840    19.5070 H        50  POP44       0.0593
  5866 HY         -20.1440    17.9450    19.5980 H        50  POP44       0.0593
  5867 O31        -19.4980    18.4550    17.7000 O.3      50  POP44      -0.3125
  5868 C31        -18.5770    19.2620    17.1280 C.2      50  POP44       0.2622
  5869 O32        -17.4440    19.4250    17.5810 O.2      50  POP44      -0.2650
  5870 C32        -19.0820    20.0070    15.9570 C.3      50  POP44       0.0332
  5871 H2X        -19.6420    20.9450    16.1370 H        50  POP44       0.0366
  5872 H2Y        -19.8050    19.3480    15.4070 H        50  POP44       0.0366
  5873 C23        -15.8530    14.1600    15.9630 C.3      50  POP44      -0.0441
  5874 H3R        -16.5240    14.5230    15.1380 H        50  POP44       0.0270
  5875 H3S        -16.1530    13.1110    16.2410 H        50  POP44       0.0270
  5876 C24        -14.4560    14.1390    15.4160 C.3      50  POP44      -0.0526
  5877 H4R        -13.7630    13.8550    16.2770 H        50  POP44       0.0265
  5878 H4S        -14.0010    15.1270    15.0200 H        50  POP44       0.0265
  5879 C25        -14.1130    13.1940    14.2700 C.3      50  POP44      -0.0530
  5880 H5R        -14.6800    13.4430    13.3640 H        50  POP44       0.0265
  5881 H5S        -14.4390    12.2630    14.6590 H        50  POP44       0.0265
  5882 C26        -12.5230    13.1300    14.1640 C.3      50  POP44      -0.0528
  5883 H6R        -12.1230    12.4700    15.0190 H        50  POP44       0.0265
  5884 H6S        -12.0920    14.1840    14.3660 H        50  POP44       0.0265
  5885 C27        -12.1080    12.3550    12.8660 C.3      50  POP44      -0.0496
  5886 H7R        -12.6100    11.3860    12.8320 H        50  POP44       0.0268
  5887 H7S        -11.0100    12.1820    12.8530 H        50  POP44       0.0268
  5888 C28        -12.4070    13.1220    11.5290 C.3      50  POP44      -0.0348
  5889 H8R        -13.5060    13.1390    11.2990 H        50  POP44       0.0307
  5890 H8S        -11.8600    12.7520    10.6800 H        50  POP44       0.0307
  5891 C29        -11.8510    14.5020    11.7340 C.2      50  POP44      -0.0879
  5892 H91        -12.5640    15.2260    12.2740 H        50  POP44       0.0569
  5893 C210       -10.6150    14.9880    11.3500 C.2      50  POP44      -0.0879
  5894 H101       -10.3660    16.0190    11.7110 H        50  POP44       0.0569
  5895 C211        -9.4090    14.2040    10.7040 C.3      50  POP44      -0.0348
  5896 H11R        -9.6090    13.1450    10.4730 H        50  POP44       0.0307
  5897 H11S        -8.4820    14.1450    11.3290 H        50  POP44       0.0307
  5898 C212        -8.9450    14.9050     9.3540 C.3      50  POP44      -0.0496
  5899 H12R        -8.0360    14.3700     9.0240 H        50  POP44       0.0268
  5900 H12S        -8.5680    16.0210     9.5260 H        50  POP44       0.0268
  5901 C213        -9.7670    14.7790     8.0870 C.3      50  POP44      -0.0528
  5902 H13R       -10.7570    15.1750     8.3170 H        50  POP44       0.0265
  5903 H13S        -9.7900    13.6680     7.7410 H        50  POP44       0.0265
  5904 C214        -9.1390    15.5270     6.9070 C.3      50  POP44      -0.0530
  5905 H14R        -8.0230    15.3950     6.8610 H        50  POP44       0.0265
  5906 H14S        -9.2120    16.6180     7.2000 H        50  POP44       0.0265
  5907 C215        -9.9240    15.1850     5.6460 C.3      50  POP44      -0.0531
  5908 H15R       -10.2940    14.2060     5.7700 H        50  POP44       0.0265
  5909 H15S        -9.1470    15.1760     4.8280 H        50  POP44       0.0265
  5910 C216       -11.0470    16.0700     5.2820 C.3      50  POP44      -0.0533
  5911 H16R       -10.5110    17.0590     5.1660 H        50  POP44       0.0265
  5912 H16S       -11.7080    16.2770     6.1090 H        50  POP44       0.0265
  5913 C217       -11.8530    15.6860     4.0610 C.3      50  POP44      -0.0559
  5914 H17R       -12.0220    14.6160     4.0230 H        50  POP44       0.0263
  5915 H17S       -11.2560    15.8720     3.1320 H        50  POP44       0.0263
  5916 C218       -13.1030    16.5090     4.0060 C.3      50  POP44      -0.0653
  5917 H18R       -13.6730    16.3090     3.1400 H        50  POP44       0.0230
  5918 H18S       -12.9160    17.6570     3.9170 H        50  POP44       0.0230
  5919 H18T       -13.6960    16.3710     4.9450 H        50  POP44       0.0230
  5920 C33        -17.9330    20.3100    14.9180 C.3      50  POP44      -0.0441
  5921 H3X        -16.9660    20.3160    15.3750 H        50  POP44       0.0270
  5922 H3Y        -18.1950    21.2270    14.3820 H        50  POP44       0.0270
  5923 C34        -17.8740    19.0910    13.9630 C.3      50  POP44      -0.0526
  5924 H4X        -18.7900    18.9270    13.3020 H        50  POP44       0.0265
  5925 H4Y        -17.8060    18.1460    14.5970 H        50  POP44       0.0265
  5926 C35        -16.6880    19.0090    13.0730 C.3      50  POP44      -0.0530
  5927 H5X        -15.7780    19.4830    13.6140 H        50  POP44       0.0265
  5928 H5Y        -16.9080    19.5440    12.1620 H        50  POP44       0.0265
  5929 C36        -16.1780    17.5590    12.7840 C.3      50  POP44      -0.0531
  5930 H6X        -16.2440    16.9270    13.7320 H        50  POP44       0.0265
  5931 H6Y        -15.1800    17.5620    12.3850 H        50  POP44       0.0265
  5932 C37        -17.2080    16.9780    11.7480 C.3      50  POP44      -0.0531
  5933 H7X        -17.2570    17.5340    10.8120 H        50  POP44       0.0265
  5934 H7Y        -18.1790    17.1030    12.2020 H        50  POP44       0.0265
  5935 C38        -17.0890    15.4550    11.4550 C.3      50  POP44      -0.0531
  5936 H8X        -17.9750    15.0730    10.8570 H        50  POP44       0.0265
  5937 H8Y        -17.0400    14.8370    12.3780 H        50  POP44       0.0265
  5938 C39        -15.7770    15.0690    10.7150 C.3      50  POP44      -0.0531
  5939 H9X        -15.7100    13.9370    10.7260 H        50  POP44       0.0265
  5940 H9Y        -14.8630    15.5640    11.2510 H        50  POP44       0.0265
  5941 C310       -15.8170    15.4970     9.2080 C.3      50  POP44      -0.0531
  5942 H10X       -16.2120    16.4890     9.1420 H        50  POP44       0.0265
  5943 H10Y       -16.5180    14.9240     8.5700 H        50  POP44       0.0265
  5944 C311       -14.4080    15.3060     8.6750 C.3      50  POP44      -0.0531
  5945 H11X       -13.5430    15.3620     9.4310 H        50  POP44       0.0265
  5946 H11Y       -14.0750    16.1320     7.9590 H        50  POP44       0.0265
  5947 C312       -14.2560    13.9790     8.0400 C.3      50  POP44      -0.0531
  5948 H12X       -14.7300    14.0750     7.0010 H        50  POP44       0.0265
  5949 H12Y       -14.8650    13.1850     8.6770 H        50  POP44       0.0265
  5950 C313       -12.8570    13.4100     7.9470 C.3      50  POP44      -0.0531
  5951 H13X       -12.3810    13.2920     8.9290 H        50  POP44       0.0265
  5952 H13Y       -12.3200    14.1470     7.3580 H        50  POP44       0.0265
  5953 C314       -12.8830    12.0620     7.1480 C.3      50  POP44      -0.0533
  5954 H14X       -13.5740    11.3860     7.5740 H        50  POP44       0.0265
  5955 H14Y       -11.8650    11.5340     7.1630 H        50  POP44       0.0265
  5956 C315       -13.3420    12.2250     5.6110 C.3      50  POP44      -0.0559
  5957 H15X       -12.3640    12.5230     5.1430 H        50  POP44       0.0263
  5958 H15Y       -14.0570    12.9590     5.4520 H        50  POP44       0.0263
  5959 C316       -13.7860    10.8690     5.0640 C.3      50  POP44      -0.0653
  5960 H16X       -14.5240    11.1350     4.2800 H        50  POP44       0.0230
  5961 H16Y       -14.3010    10.3660     5.9250 H        50  POP44       0.0230
  5962 H16Z       -12.9120    10.2690     4.7470 H        50  POP44       0.0230
  5963 N           16.5180    -0.7310    24.8960 N.3      51  POP45       0.2385
  5964 C12         17.1570    -1.6490    23.9740 C.3      51  POP45      -0.0064
  5965 H12A        17.3510    -2.5970    24.4920 H        51  POP45       0.0838
  5966 H12B        18.0670    -1.2840    23.7330 H        51  POP45       0.0838
  5967 C13         17.4830    -0.3730    26.0740 C.3      51  POP45      -0.0417
  5968 H13A        18.4570    -0.1990    25.6690 H        51  POP45       0.0778
  5969 H13B        17.0050     0.4180    26.6410 H        51  POP45       0.0778
  5970 H13C        17.6210    -1.1400    26.7850 H        51  POP45       0.0778
  5971 C14         16.1460     0.5530    24.1860 C.3      51  POP45      -0.0417
  5972 H14A        15.2200     0.4450    23.5580 H        51  POP45       0.0778
  5973 H14B        15.9460     1.3450    24.7730 H        51  POP45       0.0778
  5974 H14C        17.0000     0.8490    23.5670 H        51  POP45       0.0778
  5975 C15         15.2510    -1.3190    25.5300 C.3      51  POP45      -0.0417
  5976 H15A        14.9800    -0.6710    26.3590 H        51  POP45       0.0778
  5977 H15B        15.4960    -2.2600    25.8550 H        51  POP45       0.0778
  5978 H15C        14.5330    -1.4790    24.8230 H        51  POP45       0.0778
  5979 C11         16.3650    -1.9860    22.7180 C.3      51  POP45       0.0954
  5980 H11A        16.1400    -1.2080    21.9880 H        51  POP45       0.0618
  5981 H11B        15.3780    -2.2920    22.9890 H        51  POP45       0.0618
  5982 P           18.1280    -2.7650    21.1320 P.3      51  POP45       0.2645
  5983 O13         19.0760    -3.8750    21.2430 O.co2    51  POP45      -0.5105
  5984 O14         18.7330    -1.4190    21.4250 O.co2    51  POP45      -0.5105
  5985 O12         16.9350    -3.0830    22.1540 O.3      51  POP45      -0.3154
  5986 O11         17.4460    -2.6990    19.7690 O.3      51  POP45      -0.3181
  5987 C1          16.0500    -2.7460    19.4760 C.3      51  POP45       0.0845
  5988 HA          15.4600    -1.9510    20.0160 H        51  POP45       0.0591
  5989 HB          15.6540    -3.7560    19.7570 H        51  POP45       0.0591
  5990 C2          15.6480    -2.5250    17.9840 C.3      51  POP45       0.1155
  5991 HS          16.1360    -3.3280    17.3820 H        51  POP45       0.0649
  5992 O21         16.0180    -1.1330    17.6070 O.3      51  POP45      -0.3072
  5993 C21         17.2490    -0.9050    17.1440 C.2      51  POP45       0.2626
  5994 O22         18.1270    -1.7650    16.9730 O.2      51  POP45      -0.2650
  5995 C22         17.4380     0.6080    17.1290 C.3      51  POP45       0.0332
  5996 H2R         17.7330     0.8230    18.1670 H        51  POP45       0.0366
  5997 H2S         16.4850     1.1490    16.8730 H        51  POP45       0.0366
  5998 C3          14.1490    -2.6940    17.8850 C.3      51  POP45       0.0860
  5999 HX          13.5810    -1.8880    18.4140 H        51  POP45       0.0593
  6000 HY          13.7420    -3.6240    18.3810 H        51  POP45       0.0593
  6001 O31         13.8160    -2.8920    16.4630 O.3      51  POP45      -0.3125
  6002 C31         13.4980    -1.8780    15.6540 C.2      51  POP45       0.2622
  6003 O32         13.2860    -0.7580    16.1300 O.2      51  POP45      -0.2650
  6004 C32         13.3310    -2.2820    14.1930 C.3      51  POP45       0.0332
  6005 H2X         12.6850    -3.1670    14.2580 H        51  POP45       0.0366
  6006 H2Y         14.3010    -2.5700    13.8050 H        51  POP45       0.0366
  6007 C23         18.4980     1.2760    16.1890 C.3      51  POP45      -0.0441
  6008 H3R         19.3980     0.5550    16.0420 H        51  POP45       0.0270
  6009 H3S         18.9150     2.2420    16.5830 H        51  POP45       0.0270
  6010 C24         18.0160     1.6140    14.7760 C.3      51  POP45      -0.0526
  6011 H4R         17.3290     2.4860    14.8750 H        51  POP45       0.0265
  6012 H4S         17.4230     0.8240    14.2430 H        51  POP45       0.0265
  6013 C25         19.2090     2.0370    13.9230 C.3      51  POP45      -0.0530
  6014 H5R         20.0760     1.3110    13.9510 H        51  POP45       0.0265
  6015 H5S         19.6100     3.0490    14.1910 H        51  POP45       0.0265
  6016 C26         18.9420     2.2670    12.4080 C.3      51  POP45      -0.0528
  6017 H6R         17.9970     2.8500    12.2530 H        51  POP45       0.0265
  6018 H6S         18.7890     1.2340    11.8780 H        51  POP45       0.0265
  6019 C27         19.9810     3.0970    11.7170 C.3      51  POP45      -0.0496
  6020 H7R         20.9510     2.5410    11.8320 H        51  POP45       0.0268
  6021 H7S         19.9060     4.1140    12.1920 H        51  POP45       0.0268
  6022 C28         19.5700     3.0180    10.2280 C.3      51  POP45      -0.0348
  6023 H8R         18.4600     3.2050    10.1910 H        51  POP45       0.0307
  6024 H8S         19.5900     1.9940     9.8810 H        51  POP45       0.0307
  6025 C29         20.4640     3.8710     9.3160 C.2      51  POP45      -0.0879
  6026 H91         21.5860     3.7120     9.2270 H        51  POP45       0.0569
  6027 C210        19.9250     4.8510     8.4970 C.2      51  POP45      -0.0879
  6028 H101        20.7110     5.4040     7.9690 H        51  POP45       0.0569
  6029 C211        18.4890     5.1650     8.3750 C.3      51  POP45      -0.0348
  6030 H11R        18.0180     5.5090     9.3120 H        51  POP45       0.0307
  6031 H11S        17.9460     4.2690     7.9920 H        51  POP45       0.0307
  6032 C212        18.2700     6.1820     7.2520 C.3      51  POP45      -0.0496
  6033 H12R        18.7920     7.1250     7.5110 H        51  POP45       0.0268
  6034 H12S        17.1730     6.2960     7.1560 H        51  POP45       0.0268
  6035 C213        18.8830     5.8500     5.8750 C.3      51  POP45      -0.0528
  6036 H13R        18.7030     4.7420     5.6900 H        51  POP45       0.0265
  6037 H13S        19.8860     6.0560     5.8770 H        51  POP45       0.0265
  6038 C214        18.3520     6.8180     4.8170 C.3      51  POP45      -0.0530
  6039 H14R        18.5080     7.8300     5.0550 H        51  POP45       0.0265
  6040 H14S        17.2720     6.5700     4.7670 H        51  POP45       0.0265
  6041 C215        18.9660     6.4820     3.4100 C.3      51  POP45      -0.0531
  6042 H15R        18.9450     5.3800     3.2250 H        51  POP45       0.0265
  6043 H15S        20.0430     6.7500     3.4440 H        51  POP45       0.0265
  6044 C216        18.3790     7.3670     2.2390 C.3      51  POP45      -0.0533
  6045 H16R        18.4270     8.4220     2.4270 H        51  POP45       0.0265
  6046 H16S        17.3440     7.0390     2.1770 H        51  POP45       0.0265
  6047 C217        19.1290     6.9710     0.9300 C.3      51  POP45      -0.0559
  6048 H17R        19.1670     5.8770     0.7330 H        51  POP45       0.0263
  6049 H17S        20.2200     7.3040     0.9570 H        51  POP45       0.0263
  6050 C218        18.4570     7.6580    -0.2890 C.3      51  POP45      -0.0653
  6051 H18R        18.7800     7.0500    -1.1750 H        51  POP45       0.0230
  6052 H18S        18.8180     8.7020    -0.4640 H        51  POP45       0.0230
  6053 H18T        17.3520     7.6260    -0.2730 H        51  POP45       0.0230
  6054 C33         12.8360    -1.1460    13.2990 C.3      51  POP45      -0.0441
  6055 H3X         12.0900    -0.6160    13.8470 H        51  POP45       0.0270
  6056 H3Y         12.4560    -1.5520    12.3630 H        51  POP45       0.0270
  6057 C34         13.8820    -0.0390    12.8610 C.3      51  POP45      -0.0526
  6058 H4X         14.5870    -0.5990    12.2600 H        51  POP45       0.0265
  6059 H4Y         14.4420     0.4520    13.6910 H        51  POP45       0.0265
  6060 C35         13.3030     1.1290    11.9880 C.3      51  POP45      -0.0530
  6061 H5X         12.8970     1.7690    12.7660 H        51  POP45       0.0265
  6062 H5Y         12.5630     0.8080    11.2620 H        51  POP45       0.0265
  6063 C36         14.5010     1.9130    11.2300 C.3      51  POP45      -0.0531
  6064 H6X         15.4280     1.8850    11.9000 H        51  POP45       0.0265
  6065 H6Y         14.1520     2.9030    10.9240 H        51  POP45       0.0265
  6066 C37         14.9220     1.0700     9.9500 C.3      51  POP45      -0.0531
  6067 H7X         14.0980     1.1160     9.2810 H        51  POP45       0.0265
  6068 H7Y         15.0300     0.0000    10.3120 H        51  POP45       0.0265
  6069 C38         16.2060     1.6200     9.2660 C.3      51  POP45      -0.0531
  6070 H8X         17.1400     1.5380     9.9450 H        51  POP45       0.0265
  6071 H8Y         16.0950     2.7040     9.0150 H        51  POP45       0.0265
  6072 C39         16.5350     0.8630     8.0320 C.3      51  POP45      -0.0531
  6073 H9X         15.9490     1.1310     7.1180 H        51  POP45       0.0265
  6074 H9Y         16.3290    -0.2330     8.1860 H        51  POP45       0.0265
  6075 C310        18.1020     0.9310     7.6630 C.3      51  POP45      -0.0531
  6076 H10X        18.7430     0.4510     8.5890 H        51  POP45       0.0265
  6077 H10Y        18.3980     1.9960     7.5520 H        51  POP45       0.0265
  6078 C311        18.3220     0.1320     6.3310 C.3      51  POP45      -0.0531
  6079 H11X        17.9810     0.7460     5.4950 H        51  POP45       0.0265
  6080 H11Y        17.6800    -0.7700     6.4100 H        51  POP45       0.0265
  6081 C312        19.7380    -0.3810     6.0110 C.3      51  POP45      -0.0531
  6082 H12X        20.0770    -0.9030     6.9350 H        51  POP45       0.0265
  6083 H12Y        20.4230     0.5240     5.8960 H        51  POP45       0.0265
  6084 C313        19.8210    -1.2640     4.7390 C.3      51  POP45      -0.0531
  6085 H13X        19.6190    -0.6670     3.8400 H        51  POP45       0.0265
  6086 H13Y        19.1550    -2.0700     4.8570 H        51  POP45       0.0265
  6087 C314        21.1900    -1.8190     4.5330 C.3      51  POP45      -0.0533
  6088 H14X        21.8900    -0.9760     4.4400 H        51  POP45       0.0265
  6089 H14Y        21.2040    -2.4000     3.5600 H        51  POP45       0.0265
  6090 C315        21.7020    -2.9080     5.5670 C.3      51  POP45      -0.0559
  6091 H15X        22.0620    -2.5110     6.5380 H        51  POP45       0.0263
  6092 H15Y        22.5670    -3.4370     4.9950 H        51  POP45       0.0263
  6093 C316        20.7180    -4.0690     5.7850 C.3      51  POP45      -0.0653
  6094 H16X        20.6250    -4.7500     4.9000 H        51  POP45       0.0230
  6095 H16Y        19.7400    -3.7760     6.2620 H        51  POP45       0.0230
  6096 H16Z        21.1040    -4.7650     6.4790 H        51  POP45       0.0230
  6097 N           28.5650   -13.8570    18.5850 N.3      52  POP46       0.2385
  6098 C12         27.1160   -13.8680    18.8910 C.3      52  POP46      -0.0064
  6099 H12A        26.6320   -12.9190    18.6770 H        52  POP46       0.0838
  6100 H12B        27.0150   -13.9930    19.9520 H        52  POP46       0.0838
  6101 C13         29.1230   -12.8570    19.6040 C.3      52  POP46      -0.0417
  6102 H13A        30.1910   -12.8440    19.6570 H        52  POP46       0.0778
  6103 H13B        28.6880   -11.8540    19.5270 H        52  POP46       0.0778
  6104 H13C        28.7940   -13.3000    20.5180 H        52  POP46       0.0778
  6105 C14         29.1700   -15.1770    18.8380 C.3      52  POP46      -0.0417
  6106 H14A        28.4560   -15.9510    18.4850 H        52  POP46       0.0778
  6107 H14B        30.1140   -15.3800    18.2310 H        52  POP46       0.0778
  6108 H14C        29.2820   -15.3230    19.8960 H        52  POP46       0.0778
  6109 C15         28.8660   -13.3660    17.1680 C.3      52  POP46      -0.0417
  6110 H15A        28.3490   -13.9690    16.4270 H        52  POP46       0.0778
  6111 H15B        29.9700   -13.3810    17.1020 H        52  POP46       0.0778
  6112 H15C        28.5850   -12.2960    17.0150 H        52  POP46       0.0778
  6113 C11         26.1710   -14.9810    18.3080 C.3      52  POP46       0.0954
  6114 H11A        26.3900   -15.0330    17.1600 H        52  POP46       0.0618
  6115 H11B        25.1810   -14.4870    18.3640 H        52  POP46       0.0618
  6116 P           25.0890   -17.1930    19.0230 P.3      52  POP46       0.2645
  6117 O13         24.0030   -16.5810    19.8000 O.co2    52  POP46      -0.5105
  6118 O14         25.6000   -18.5130    19.5190 O.co2    52  POP46      -0.5105
  6119 O12         26.3050   -16.1970    18.9810 O.3      52  POP46      -0.3154
  6120 O11         24.5930   -17.3300    17.5640 O.3      52  POP46      -0.3181
  6121 C1          24.9930   -18.3420    16.6780 C.3      52  POP46       0.0845
  6122 HA          25.1120   -19.2510    17.2110 H        52  POP46       0.0591
  6123 HB          26.0030   -18.1040    16.2840 H        52  POP46       0.0591
  6124 C2          24.0420   -18.6220    15.4630 C.3      52  POP46       0.1155
  6125 HS          24.5010   -19.3150    14.7210 H        52  POP46       0.0649
  6126 O21         23.4190   -17.5030    14.8700 O.3      52  POP46      -0.3072
  6127 C21         24.2350   -16.8140    14.0210 C.2      52  POP46       0.2626
  6128 O22         25.4140   -17.0170    13.8300 O.2      52  POP46      -0.2650
  6129 C22         23.4280   -15.7020    13.3850 C.3      52  POP46       0.0332
  6130 H2R         23.3190   -14.8760    14.1850 H        52  POP46       0.0366
  6131 H2S         22.4020   -16.2370    13.1510 H        52  POP46       0.0366
  6132 C3          22.9340   -19.3950    16.1640 C.3      52  POP46       0.0860
  6133 HX          22.4210   -18.9860    17.0550 H        52  POP46       0.0593
  6134 HY          23.3600   -20.3760    16.5270 H        52  POP46       0.0593
  6135 O31         21.8810   -19.7380    15.1710 O.3      52  POP46      -0.3125
  6136 C31         20.9380   -18.8480    15.0290 C.2      52  POP46       0.2622
  6137 O32         20.7500   -17.9260    15.8080 O.2      52  POP46      -0.2650
  6138 C32         20.1580   -19.0700    13.7320 C.3      52  POP46       0.0332
  6139 H2X         19.9930   -20.1010    13.5290 H        52  POP46       0.0366
  6140 H2Y         20.7410   -18.8060    12.8550 H        52  POP46       0.0366
  6141 C23         24.1880   -15.0320    12.1940 C.3      52  POP46      -0.0441
  6142 H3R         25.1590   -14.6490    12.4230 H        52  POP46       0.0270
  6143 H3S         23.5600   -14.2440    11.8220 H        52  POP46       0.0270
  6144 C24         24.3020   -16.0470    11.0170 C.3      52  POP46      -0.0526
  6145 H4R         23.3410   -16.5860    11.0610 H        52  POP46       0.0265
  6146 H4S         25.1480   -16.7730    11.3420 H        52  POP46       0.0265
  6147 C25         24.3330   -15.2660     9.7050 C.3      52  POP46      -0.0530
  6148 H5R         25.2610   -14.7340     9.4950 H        52  POP46       0.0265
  6149 H5S         23.6110   -14.4460     9.8850 H        52  POP46       0.0265
  6150 C26         23.7770   -15.8920     8.4340 C.3      52  POP46      -0.0528
  6151 H6R         22.7650   -16.3850     8.7150 H        52  POP46       0.0265
  6152 H6S         24.4400   -16.7510     8.2110 H        52  POP46       0.0265
  6153 C27         23.5860   -14.9380     7.2560 C.3      52  POP46      -0.0496
  6154 H7R         24.5740   -14.4810     6.9710 H        52  POP46       0.0268
  6155 H7S         22.8920   -14.1120     7.3820 H        52  POP46       0.0268
  6156 C28         23.0820   -15.7850     5.9410 C.3      52  POP46      -0.0348
  6157 H8R         22.0950   -16.2730     6.1800 H        52  POP46       0.0307
  6158 H8S         23.7430   -16.6300     6.0270 H        52  POP46       0.0307
  6159 C29         22.8790   -15.0480     4.5930 C.2      52  POP46      -0.0879
  6160 H91         22.3440   -14.0820     4.7360 H        52  POP46       0.0569
  6161 C210        23.1400   -15.6690     3.4050 C.2      52  POP46      -0.0879
  6162 H101        23.0920   -15.0620     2.4590 H        52  POP46       0.0569
  6163 C211        24.0230   -16.9170     3.2720 C.3      52  POP46      -0.0348
  6164 H11R        23.9750   -17.3200     2.2440 H        52  POP46       0.0307
  6165 H11S        23.5670   -17.6640     3.9260 H        52  POP46       0.0307
  6166 C212        25.5380   -16.6540     3.5980 C.3      52  POP46      -0.0496
  6167 H12R        25.6890   -16.3790     4.6390 H        52  POP46       0.0268
  6168 H12S        25.8810   -15.7340     3.0570 H        52  POP46       0.0268
  6169 C213        26.5160   -17.7830     3.1270 C.3      52  POP46      -0.0528
  6170 H13R        26.2270   -18.7080     3.6370 H        52  POP46       0.0265
  6171 H13S        27.5540   -17.5170     3.4420 H        52  POP46       0.0265
  6172 C214        26.4140   -18.0930     1.6170 C.3      52  POP46      -0.0530
  6173 H14R        26.5350   -17.2040     1.0080 H        52  POP46       0.0265
  6174 H14S        25.3980   -18.4660     1.2670 H        52  POP46       0.0265
  6175 C215        27.4820   -19.0210     1.0100 C.3      52  POP46      -0.0531
  6176 H15R        27.4070   -20.0530     1.3910 H        52  POP46       0.0265
  6177 H15S        28.5080   -18.6570     1.3660 H        52  POP46       0.0265
  6178 C216        27.5280   -19.0900    -0.4930 C.3      52  POP46      -0.0533
  6179 H16R        28.3760   -19.5010    -0.9640 H        52  POP46       0.0265
  6180 H16S        27.4700   -18.0510    -0.9660 H        52  POP46       0.0265
  6181 C217        26.3450   -19.8150    -1.1370 C.3      52  POP46      -0.0559
  6182 H17R        25.3830   -19.4060    -0.7240 H        52  POP46       0.0263
  6183 H17S        26.3940   -20.9090    -0.8700 H        52  POP46       0.0263
  6184 C218        26.3080   -19.7470    -2.6580 C.3      52  POP46      -0.0653
  6185 H18R        25.3780   -20.3380    -3.0010 H        52  POP46       0.0230
  6186 H18S        27.2590   -20.2670    -2.9930 H        52  POP46       0.0230
  6187 H18T        26.2520   -18.7230    -2.9610 H        52  POP46       0.0230
  6188 C33         18.7360   -18.4560    13.9120 C.3      52  POP46      -0.0441
  6189 H3X         18.3370   -18.7030    14.9270 H        52  POP46       0.0270
  6190 H3Y         18.0690   -19.0040    13.2090 H        52  POP46       0.0270
  6191 C34         18.7700   -16.9200    13.6020 C.3      52  POP46      -0.0526
  6192 H4X         19.2740   -16.7100    12.6330 H        52  POP46       0.0265
  6193 H4Y         19.4600   -16.4020    14.2970 H        52  POP46       0.0265
  6194 C35         17.3970   -16.2390    13.5210 C.3      52  POP46      -0.0530
  6195 H5X         16.7190   -16.7010    14.2490 H        52  POP46       0.0265
  6196 H5Y         17.0520   -16.3480    12.5070 H        52  POP46       0.0265
  6197 C36         17.5200   -14.7600    13.7730 C.3      52  POP46      -0.0531
  6198 H6X         18.3770   -14.2690    13.1580 H        52  POP46       0.0265
  6199 H6Y         17.8870   -14.5430    14.8560 H        52  POP46       0.0265
  6200 C37         16.2520   -13.9950    13.5100 C.3      52  POP46      -0.0531
  6201 H7X         15.4280   -14.4710    14.1520 H        52  POP46       0.0265
  6202 H7Y         15.9300   -14.2250    12.4280 H        52  POP46       0.0265
  6203 C38         16.4960   -12.4920    13.8250 C.3      52  POP46      -0.0531
  6204 H8X         17.1380   -12.1210    12.9720 H        52  POP46       0.0265
  6205 H8Y         17.0240   -12.4500    14.8030 H        52  POP46       0.0265
  6206 C39         15.1450   -11.7920    14.0300 C.3      52  POP46      -0.0531
  6207 H9X         15.3020   -10.6610    14.2630 H        52  POP46       0.0265
  6208 H9Y         14.7870   -12.2980    14.9830 H        52  POP46       0.0265
  6209 C310        14.0840   -11.9860    12.9120 C.3      52  POP46      -0.0531
  6210 H10X        13.2820   -11.3700    13.2210 H        52  POP46       0.0265
  6211 H10Y        13.6960   -12.9970    12.7960 H        52  POP46       0.0265
  6212 C311        14.5520   -11.2850    11.5270 C.3      52  POP46      -0.0531
  6213 H11X        15.3810   -11.8620    10.9770 H        52  POP46       0.0265
  6214 H11Y        14.9430   -10.2860    11.8550 H        52  POP46       0.0265
  6215 C312        13.4780   -10.9500    10.5490 C.3      52  POP46      -0.0531
  6216 H12X        12.7000   -10.4160    11.0620 H        52  POP46       0.0265
  6217 H12Y        13.0390   -11.8950    10.2710 H        52  POP46       0.0265
  6218 C313        14.0530   -10.1430     9.2930 C.3      52  POP46      -0.0531
  6219 H13X        14.9510   -10.6860     8.8330 H        52  POP46       0.0265
  6220 H13Y        14.4380    -9.1170     9.5670 H        52  POP46       0.0265
  6221 C314        12.9460   -10.1950     8.2500 C.3      52  POP46      -0.0533
  6222 H14X        12.1570    -9.4800     8.5840 H        52  POP46       0.0265
  6223 H14Y        12.4100   -11.1880     8.1060 H        52  POP46       0.0265
  6224 C315        13.4940    -9.5970     6.9670 C.3      52  POP46      -0.0559
  6225 H15X        14.2540   -10.2590     6.6310 H        52  POP46       0.0263
  6226 H15Y        13.8880    -8.6330     7.2030 H        52  POP46       0.0263
  6227 C316        12.3580    -9.3760     5.9280 C.3      52  POP46      -0.0653
  6228 H16X        11.5930   -10.2010     5.7390 H        52  POP46       0.0230
  6229 H16Y        12.7720    -9.0910     4.9630 H        52  POP46       0.0230
  6230 H16Z        11.6540    -8.6640     6.4100 H        52  POP46       0.0230
  6231 N            9.3380    -9.5690    24.4800 N.3      53  POP47       0.2385
  6232 C12          8.8420    -8.7060    25.5890 C.3      53  POP47      -0.0064
  6233 H12A         9.1210    -9.1740    26.5080 H        53  POP47       0.0838
  6234 H12B         7.7660    -8.8540    25.6250 H        53  POP47       0.0838
  6235 C13          8.6060    -9.2050    23.2380 C.3      53  POP47      -0.0417
  6236 H13A         7.5380    -9.4070    23.3680 H        53  POP47       0.0778
  6237 H13B         8.8790    -8.2250    22.9850 H        53  POP47       0.0778
  6238 H13C         8.9540    -9.8570    22.4060 H        53  POP47       0.0778
  6239 C14         10.8400    -9.3990    24.2350 C.3      53  POP47      -0.0417
  6240 H14A        11.0920    -8.4710    23.8360 H        53  POP47       0.0778
  6241 H14B        11.3980    -9.4790    25.2310 H        53  POP47       0.0778
  6242 H14C        11.2240   -10.2280    23.6420 H        53  POP47       0.0778
  6243 C15          9.1330   -10.9560    24.7690 C.3      53  POP47      -0.0417
  6244 H15A         7.9900   -11.1870    24.8170 H        53  POP47       0.0778
  6245 H15B         9.4690   -11.1850    25.7510 H        53  POP47       0.0778
  6246 H15C         9.6080   -11.6060    23.9770 H        53  POP47       0.0778
  6247 C11          9.2600    -7.2420    25.5610 C.3      53  POP47       0.0954
  6248 H11A        10.3420    -7.0210    25.4360 H        53  POP47       0.0618
  6249 H11B         9.0360    -6.7590    26.5970 H        53  POP47       0.0618
  6250 P            7.7240    -5.2950    25.0340 P.3      53  POP47       0.2645
  6251 O13          8.6370    -4.4400    25.8530 O.co2    53  POP47      -0.5105
  6252 O14          6.4820    -5.7040    25.7100 O.co2    53  POP47      -0.5105
  6253 O12          8.5520    -6.5990    24.5410 O.3      53  POP47      -0.3154
  6254 O11          7.3570    -4.5350    23.7210 O.3      53  POP47      -0.3181
  6255 C1           6.3040    -5.0380    22.9400 C.3      53  POP47       0.0845
  6256 HA           5.7510    -4.2220    22.4980 H        53  POP47       0.0591
  6257 HB           5.5840    -5.6640    23.5070 H        53  POP47       0.0591
  6258 C2           6.7800    -5.9650    21.7920 C.3      53  POP47       0.1155
  6259 HS           7.1040    -6.8610    22.2920 H        53  POP47       0.0649
  6260 O21          7.8940    -5.2750    21.0800 O.3      53  POP47      -0.3072
  6261 C21          8.7390    -6.0990    20.5520 C.2      53  POP47       0.2626
  6262 O22          8.8240    -7.2680    20.8340 O.2      53  POP47      -0.2650
  6263 C22          9.5630    -5.3700    19.5460 C.3      53  POP47       0.0332
  6264 H2R         10.0850    -6.0630    18.8900 H        53  POP47       0.0366
  6265 H2S         10.4300    -4.8220    19.9240 H        53  POP47       0.0366
  6266 C3           5.5980    -6.2370    20.8000 C.3      53  POP47       0.0860
  6267 HX           5.4940    -5.3030    20.1260 H        53  POP47       0.0593
  6268 HY           4.6190    -6.5170    21.3270 H        53  POP47       0.0593
  6269 O31          6.0420    -7.2760    19.9390 O.3      53  POP47      -0.3125
  6270 C31          6.0040    -8.5470    20.5150 C.2      53  POP47       0.2622
  6271 O32          5.5100    -8.7430    21.6440 O.2      53  POP47      -0.2650
  6272 C32          6.5060    -9.6330    19.5210 C.3      53  POP47       0.0332
  6273 H2X          5.8250   -10.4420    19.7060 H        53  POP47       0.0366
  6274 H2Y          7.5440    -9.9420    19.9230 H        53  POP47       0.0366
  6275 C23          8.6760    -4.5210    18.5950 C.3      53  POP47      -0.0441
  6276 H3R          8.1450    -3.7510    19.1630 H        53  POP47       0.0270
  6277 H3S          7.9220    -5.1190    18.0100 H        53  POP47       0.0270
  6278 C24          9.5310    -3.8210    17.5910 C.3      53  POP47      -0.0526
  6279 H4R          9.9340    -4.6130    16.8720 H        53  POP47       0.0265
  6280 H4S         10.3940    -3.4450    18.1560 H        53  POP47       0.0265
  6281 C25          8.8260    -2.8020    16.7710 C.3      53  POP47      -0.0530
  6282 H5R          8.0140    -2.3430    17.3490 H        53  POP47       0.0265
  6283 H5S          8.3520    -3.3390    15.8590 H        53  POP47       0.0265
  6284 C26          9.6350    -1.6140    16.2310 C.3      53  POP47      -0.0528
  6285 H6R         10.4140    -1.9540    15.5050 H        53  POP47       0.0265
  6286 H6S         10.0100    -1.0600    17.0880 H        53  POP47       0.0265
  6287 C27          8.6770    -0.5800    15.5020 C.3      53  POP47      -0.0496
  6288 H7R          7.7880    -0.5750    16.1710 H        53  POP47       0.0268
  6289 H7S          8.3570    -1.0910    14.5540 H        53  POP47       0.0268
  6290 C28          9.2140     0.8230    15.2760 C.3      53  POP47      -0.0348
  6291 H8R         10.1540     0.8180    14.6400 H        53  POP47       0.0307
  6292 H8S          9.6310     1.3220    16.2480 H        53  POP47       0.0307
  6293 C29          8.2570     1.7550    14.5510 C.2      53  POP47      -0.0879
  6294 H91          7.3070     2.0120    14.9980 H        53  POP47       0.0569
  6295 C210         8.5100     2.4310    13.4040 C.2      53  POP47      -0.0879
  6296 H101         7.7180     3.0940    12.9240 H        53  POP47       0.0569
  6297 C211         9.7910     2.4970    12.6270 C.3      53  POP47      -0.0348
  6298 H11R        10.5500     1.6820    12.7680 H        53  POP47       0.0307
  6299 H11S        10.2890     3.4940    12.9820 H        53  POP47       0.0307
  6300 C212         9.4480     2.7140    11.1430 C.3      53  POP47      -0.0496
  6301 H12R         8.9640     1.8480    10.6220 H        53  POP47       0.0268
  6302 H12S        10.4060     2.8690    10.5510 H        53  POP47       0.0268
  6303 C213         8.7230     4.0390    10.7470 C.3      53  POP47      -0.0528
  6304 H13R         8.8940     4.8580    11.4760 H        53  POP47       0.0265
  6305 H13S         7.6150     3.9010    10.9010 H        53  POP47       0.0265
  6306 C214         9.0400     4.5880     9.3670 C.3      53  POP47      -0.0530
  6307 H14R         8.9270     3.7730     8.5680 H        53  POP47       0.0265
  6308 H14S        10.1000     5.0140     9.2770 H        53  POP47       0.0265
  6309 C215         8.0740     5.6450     8.8680 C.3      53  POP47      -0.0531
  6310 H15R         8.3160     6.6230     9.3250 H        53  POP47       0.0265
  6311 H15S         7.0110     5.3540     9.1680 H        53  POP47       0.0265
  6312 C216         8.1240     5.7260     7.3680 C.3      53  POP47      -0.0533
  6313 H16R         7.0280     5.9300     6.9530 H        53  POP47       0.0265
  6314 H16S         8.5050     4.8220     6.8770 H        53  POP47       0.0265
  6315 C217         9.0110     6.8720     6.8750 C.3      53  POP47      -0.0559
  6316 H17R        10.0570     6.5950     7.3150 H        53  POP47       0.0263
  6317 H17S         8.6290     7.7760     7.3820 H        53  POP47       0.0263
  6318 C218         8.9940     7.0040     5.3660 C.3      53  POP47      -0.0653
  6319 H18R         9.2680     6.0000     4.9070 H        53  POP47       0.0230
  6320 H18S         9.7770     7.8140     5.0000 H        53  POP47       0.0230
  6321 H18T         7.9540     7.2590     5.0020 H        53  POP47       0.0230
  6322 C33          6.6350    -9.2870    18.0750 C.3      53  POP47      -0.0441
  6323 H3X          5.7280    -8.7090    17.8090 H        53  POP47       0.0270
  6324 H3Y          6.5170   -10.2270    17.4450 H        53  POP47       0.0270
  6325 C34          8.0180    -8.6940    17.7150 C.3      53  POP47      -0.0526
  6326 H4X          8.7720    -9.3410    18.2600 H        53  POP47       0.0265
  6327 H4Y          8.1690    -7.7570    18.1930 H        53  POP47       0.0265
  6328 C35          8.3340    -8.5660    16.2200 C.3      53  POP47      -0.0530
  6329 H5X          9.2830    -7.9280    16.0860 H        53  POP47       0.0265
  6330 H5Y          7.5620    -7.9510    15.6870 H        53  POP47       0.0265
  6331 C36          8.4220    -9.9520    15.5630 C.3      53  POP47      -0.0531
  6332 H6X          7.4030   -10.3870    15.5290 H        53  POP47       0.0265
  6333 H6Y          9.0910   -10.4910    16.3150 H        53  POP47       0.0265
  6334 C37          8.9490   -10.0330    14.1740 C.3      53  POP47      -0.0531
  6335 H7X         10.0110    -9.6770    14.0760 H        53  POP47       0.0265
  6336 H7Y          8.3370    -9.3950    13.4710 H        53  POP47       0.0265
  6337 C38          8.9620   -11.3850    13.6410 C.3      53  POP47      -0.0531
  6338 H8X          9.2000   -11.3960    12.5320 H        53  POP47       0.0265
  6339 H8Y          7.9940   -11.7970    13.6980 H        53  POP47       0.0265
  6340 C39          9.8690   -12.3400    14.3790 C.3      53  POP47      -0.0531
  6341 H9X          9.5320   -12.4430    15.4330 H        53  POP47       0.0265
  6342 H9Y         10.9090   -11.8700    14.4020 H        53  POP47       0.0265
  6343 C310        10.0400   -13.7210    13.6740 C.3      53  POP47      -0.0531
  6344 H10X         9.1490   -14.3730    13.8320 H        53  POP47       0.0265
  6345 H10Y        10.7650   -14.2550    14.2880 H        53  POP47       0.0265
  6346 C311        10.5180   -13.7140    12.2750 C.3      53  POP47      -0.0531
  6347 H11X        11.4790   -13.1590    12.2680 H        53  POP47       0.0265
  6348 H11Y         9.6970   -13.1510    11.7280 H        53  POP47       0.0265
  6349 C312        10.7570   -15.0540    11.5800 C.3      53  POP47      -0.0531
  6350 H12X         9.9230   -15.7730    11.8710 H        53  POP47       0.0265
  6351 H12Y        11.7510   -15.5440    11.8540 H        53  POP47       0.0265
  6352 C313        10.7170   -14.9120    10.0910 C.3      53  POP47      -0.0531
  6353 H13X        11.4560   -14.2650     9.7640 H        53  POP47       0.0265
  6354 H13Y         9.7890   -14.3100     9.8510 H        53  POP47       0.0265
  6355 C314        10.4820   -16.2450     9.2800 C.3      53  POP47      -0.0533
  6356 H14X         9.8830   -16.8840     9.9710 H        53  POP47       0.0265
  6357 H14Y        11.5490   -16.6960     9.1340 H        53  POP47       0.0265
  6358 C315         9.8240   -15.8770     7.9720 C.3      53  POP47      -0.0559
  6359 H15X         8.7560   -15.4350     8.2030 H        53  POP47       0.0263
  6360 H15Y         9.6460   -16.8810     7.3800 H        53  POP47       0.0263
  6361 C316        10.6200   -14.9880     7.1840 C.3      53  POP47      -0.0653
  6362 H16X        11.6920   -15.3900     7.1890 H        53  POP47       0.0230
  6363 H16Y        10.6480   -13.9740     7.6180 H        53  POP47       0.0230
  6364 H16Z        10.2420   -14.8440     6.1970 H        53  POP47       0.0230
  6365 N          -21.1510   -21.7560    20.0850 N.3      54  POP48       0.2385
  6366 C12        -19.9550   -22.6110    19.6450 C.3      54  POP48      -0.0064
  6367 H12A       -19.2060   -22.5940    20.4210 H        54  POP48       0.0838
  6368 H12B       -19.5240   -22.0930    18.8100 H        54  POP48       0.0838
  6369 C13        -22.1290   -21.5960    18.9580 C.3      54  POP48      -0.0417
  6370 H13A       -22.1870   -22.6070    18.5430 H        54  POP48       0.0778
  6371 H13B       -23.0330   -21.1050    19.1910 H        54  POP48       0.0778
  6372 H13C       -21.8040   -20.9880    18.1400 H        54  POP48       0.0778
  6373 C14        -21.8320   -22.3860    21.2200 C.3      54  POP48      -0.0417
  6374 H14A       -22.4780   -23.2460    20.9870 H        54  POP48       0.0778
  6375 H14B       -21.1870   -22.8040    21.9970 H        54  POP48       0.0778
  6376 H14C       -22.5090   -21.7110    21.6060 H        54  POP48       0.0778
  6377 C15        -20.6340   -20.3990    20.4460 C.3      54  POP48      -0.0417
  6378 H15A       -19.9010   -20.5230    21.2490 H        54  POP48       0.0778
  6379 H15B       -21.3020   -19.6690    20.6740 H        54  POP48       0.0778
  6380 H15C       -20.0210   -20.1420    19.5560 H        54  POP48       0.0778
  6381 C11        -20.2180   -24.0320    19.3030 C.3      54  POP48       0.0954
  6382 H11A       -20.6250   -24.5450    20.1930 H        54  POP48       0.0618
  6383 H11B       -19.3000   -24.6160    19.0860 H        54  POP48       0.0618
  6384 P          -22.1190   -25.2730    18.1820 P.3      54  POP48       0.2645
  6385 O13        -23.0600   -24.9230    19.3300 O.co2    54  POP48      -0.5105
  6386 O14        -21.4830   -26.6500    18.2670 O.co2    54  POP48      -0.5105
  6387 O12        -21.0620   -24.1560    18.1510 O.3      54  POP48      -0.3154
  6388 O11        -22.9200   -24.9160    16.7540 O.3      54  POP48      -0.3181
  6389 C1         -22.1360   -25.0900    15.5960 C.3      54  POP48       0.0845
  6390 HA         -21.0620   -25.3120    15.8390 H        54  POP48       0.0591
  6391 HB         -22.0640   -24.0590    15.2190 H        54  POP48       0.0591
  6392 C2         -22.5680   -26.2560    14.6890 C.3      54  POP48       0.1155
  6393 HS         -21.6790   -26.6960    14.2750 H        54  POP48       0.0649
  6394 O21        -23.3100   -25.7570    13.6060 O.3      54  POP48      -0.3072
  6395 C21        -22.5750   -24.9390    12.8200 C.2      54  POP48       0.2626
  6396 O22        -21.3540   -24.9250    12.8150 O.2      54  POP48      -0.2650
  6397 C22        -23.4910   -24.2600    11.8490 C.3      54  POP48       0.0332
  6398 H2R        -23.0630   -23.2000    11.7720 H        54  POP48       0.0366
  6399 H2S        -24.4930   -24.0220    12.3060 H        54  POP48       0.0366
  6400 C3         -23.4460   -27.2930    15.4640 C.3      54  POP48       0.0860
  6401 HX         -24.3800   -26.7570    15.8690 H        54  POP48       0.0593
  6402 HY         -22.9450   -27.7880    16.3600 H        54  POP48       0.0593
  6403 O31        -23.9800   -28.2670    14.5550 O.3      54  POP48      -0.3125
  6404 C31        -24.9740   -28.9610    15.1000 C.2      54  POP48       0.2622
  6405 O32        -25.3250   -28.8900    16.2670 O.2      54  POP48      -0.2650
  6406 C32        -25.6420   -29.6760    14.0020 C.3      54  POP48       0.0332
  6407 H2X        -24.9240   -30.4060    13.5570 H        54  POP48       0.0366
  6408 H2Y        -25.7900   -28.8800    13.2140 H        54  POP48       0.0366
  6409 C23        -23.6140   -24.8210    10.4150 C.3      54  POP48      -0.0441
  6410 H3R        -23.9230   -25.8690    10.5790 H        54  POP48       0.0270
  6411 H3S        -22.6700   -24.7440     9.9240 H        54  POP48       0.0270
  6412 C24        -24.6730   -24.0490     9.6490 C.3      54  POP48      -0.0526
  6413 H4R        -24.3480   -23.0110     9.4440 H        54  POP48       0.0265
  6414 H4S        -25.5860   -23.9730    10.2180 H        54  POP48       0.0265
  6415 C25        -25.2570   -24.8100     8.4270 C.3      54  POP48      -0.0530
  6416 H5R        -26.2330   -24.2620     8.2530 H        54  POP48       0.0265
  6417 H5S        -25.5360   -25.8350     8.6600 H        54  POP48       0.0265
  6418 C26        -24.2900   -24.7740     7.2490 C.3      54  POP48      -0.0528
  6419 H6R        -23.6070   -25.6060     7.4420 H        54  POP48       0.0265
  6420 H6S        -23.6920   -23.8430     7.2660 H        54  POP48       0.0265
  6421 C27        -24.9220   -24.9290     5.8990 C.3      54  POP48      -0.0496
  6422 H7R        -25.9430   -24.5650     5.7890 H        54  POP48       0.0268
  6423 H7S        -24.9490   -26.0220     5.6120 H        54  POP48       0.0268
  6424 C28        -23.9830   -24.4380     4.7860 C.3      54  POP48      -0.0348
  6425 H8R        -24.2990   -24.9450     3.8540 H        54  POP48       0.0307
  6426 H8S        -23.0180   -24.8390     5.1890 H        54  POP48       0.0307
  6427 C29        -23.9110   -22.9170     4.5980 C.2      54  POP48      -0.0879
  6428 H91        -24.8750   -22.3370     4.8530 H        54  POP48       0.0569
  6429 C210       -22.7480   -22.1920     4.4120 C.2      54  POP48      -0.0879
  6430 H101       -22.8940   -21.1060     4.3950 H        54  POP48       0.0569
  6431 C211       -21.3970   -22.7400     4.1750 C.3      54  POP48      -0.0348
  6432 H11R       -21.2750   -23.5090     4.8930 H        54  POP48       0.0307
  6433 H11S       -20.4500   -22.0630     4.3340 H        54  POP48       0.0307
  6434 C212       -21.2070   -23.3540     2.7920 C.3      54  POP48      -0.0496
  6435 H12R       -21.4500   -22.5400     2.0400 H        54  POP48       0.0268
  6436 H12S       -21.9660   -24.1270     2.6660 H        54  POP48       0.0268
  6437 C213       -19.7450   -23.8570     2.6130 C.3      54  POP48      -0.0528
  6438 H13R       -19.5420   -24.8490     3.0570 H        54  POP48       0.0265
  6439 H13S       -19.0330   -23.1000     3.0160 H        54  POP48       0.0265
  6440 C214       -19.5670   -24.0310     1.0780 C.3      54  POP48      -0.0530
  6441 H14R       -18.5020   -24.1580     0.8830 H        54  POP48       0.0265
  6442 H14S       -19.9460   -23.1540     0.4320 H        54  POP48       0.0265
  6443 C215       -20.3850   -25.2510     0.5280 C.3      54  POP48      -0.0531
  6444 H15R       -21.4570   -25.1200     0.8500 H        54  POP48       0.0265
  6445 H15S       -20.0860   -26.1680     1.0890 H        54  POP48       0.0265
  6446 C216       -20.3250   -25.3810    -0.9650 C.3      54  POP48      -0.0533
  6447 H16R       -20.8850   -24.5660    -1.4890 H        54  POP48       0.0265
  6448 H16S       -21.0760   -26.2810    -1.1900 H        54  POP48       0.0265
  6449 C217       -18.9940   -25.7900    -1.5560 C.3      54  POP48      -0.0559
  6450 H17R       -18.3970   -25.9030    -0.6410 H        54  POP48       0.0263
  6451 H17S       -18.6600   -24.9790    -2.1290 H        54  POP48       0.0263
  6452 C218       -19.0290   -27.0180    -2.4860 C.3      54  POP48      -0.0653
  6453 H18R       -19.0270   -27.9180    -1.7850 H        54  POP48       0.0230
  6454 H18S       -18.1370   -27.0650    -3.1500 H        54  POP48       0.0230
  6455 H18T       -19.9010   -27.0870    -3.0340 H        54  POP48       0.0230
  6456 C33        -27.0390   -30.3620    14.2560 C.3      54  POP48      -0.0441
  6457 H3X        -27.7690   -29.6460    14.7630 H        54  POP48       0.0270
  6458 H3Y        -26.9720   -31.2740    14.8460 H        54  POP48       0.0270
  6459 C34        -27.7810   -30.6230    12.9560 C.3      54  POP48      -0.0526
  6460 H4X        -27.2530   -31.3450    12.2870 H        54  POP48       0.0265
  6461 H4Y        -27.7550   -29.6650    12.3310 H        54  POP48       0.0265
  6462 C35        -29.2170   -31.1240    13.1140 C.3      54  POP48      -0.0530
  6463 H5X        -29.7930   -30.4630    13.8690 H        54  POP48       0.0265
  6464 H5Y        -29.2040   -32.0400    13.6930 H        54  POP48       0.0265
  6465 C36        -30.0190   -31.2180    11.8130 C.3      54  POP48      -0.0531
  6466 H6X        -29.5170   -32.0780    11.1990 H        54  POP48       0.0265
  6467 H6Y        -29.7980   -30.2980    11.0890 H        54  POP48       0.0265
  6468 C37        -31.5410   -31.3220    12.0730 C.3      54  POP48      -0.0531
  6469 H7X        -31.8140   -30.3330    12.5050 H        54  POP48       0.0265
  6470 H7Y        -31.6730   -32.1450    12.8370 H        54  POP48       0.0265
  6471 C38        -32.4370   -31.5200    10.8290 C.3      54  POP48      -0.0531
  6472 H8X        -32.1530   -30.8360    10.0070 H        54  POP48       0.0265
  6473 H8Y        -33.4980   -31.2630    11.1260 H        54  POP48       0.0265
  6474 C39        -32.3920   -32.9380    10.2200 C.3      54  POP48      -0.0531
  6475 H9X        -32.6050   -33.6760    11.0250 H        54  POP48       0.0265
  6476 H9Y        -31.4030   -33.1700     9.7210 H        54  POP48       0.0265
  6477 C310       -33.4380   -33.0280     9.0150 C.3      54  POP48      -0.0531
  6478 H10X       -33.4140   -32.0590     8.5060 H        54  POP48       0.0265
  6479 H10Y       -34.5060   -33.0920     9.2800 H        54  POP48       0.0265
  6480 C311       -32.9560   -34.1650     8.1530 C.3      54  POP48      -0.0531
  6481 H11X       -32.9100   -35.1070     8.6190 H        54  POP48       0.0265
  6482 H11Y       -31.9620   -33.8680     7.8310 H        54  POP48       0.0265
  6483 C312       -33.8210   -34.3580     6.9160 C.3      54  POP48      -0.0531
  6484 H12X       -34.0860   -33.3520     6.4730 H        54  POP48       0.0265
  6485 H12Y       -34.7800   -34.9410     7.2120 H        54  POP48       0.0265
  6486 C313       -33.1010   -35.1880     5.8640 C.3      54  POP48      -0.0531
  6487 H13X       -32.3110   -34.4550     5.4170 H        54  POP48       0.0265
  6488 H13Y       -32.4810   -35.8970     6.4530 H        54  POP48       0.0265
  6489 C314       -34.0620   -35.8070     4.8100 C.3      54  POP48      -0.0533
  6490 H14X       -34.9860   -36.3180     5.2580 H        54  POP48       0.0265
  6491 H14Y       -33.5040   -36.5740     4.2750 H        54  POP48       0.0265
  6492 C315       -34.4900   -34.8040     3.7800 C.3      54  POP48      -0.0559
  6493 H15X       -33.4900   -34.4610     3.3720 H        54  POP48       0.0263
  6494 H15Y       -34.9940   -33.9900     4.2940 H        54  POP48       0.0263
  6495 C316       -35.3650   -35.2730     2.6340 C.3      54  POP48      -0.0653
  6496 H16X       -34.7420   -35.9300     1.9750 H        54  POP48       0.0230
  6497 H16Y       -35.8020   -34.4140     2.1520 H        54  POP48       0.0230
  6498 H16Z       -36.1770   -35.8010     3.1180 H        54  POP48       0.0230
  6499 N          -13.7370     3.2500    29.7750 N.3      55  POP49       0.2385
  6500 C12        -13.8370     4.7880    29.5390 C.3      55  POP49      -0.0064
  6501 H12A       -13.7490     5.3630    30.4910 H        55  POP49       0.0838
  6502 H12B       -14.8940     5.0250    29.2490 H        55  POP49       0.0838
  6503 C13        -13.6330     2.5590    28.4740 C.3      55  POP49      -0.0417
  6504 H13A       -13.4500     1.4300    28.6210 H        55  POP49       0.0778
  6505 H13B       -14.5200     2.8430    27.9180 H        55  POP49       0.0778
  6506 H13C       -12.8570     3.0660    27.9160 H        55  POP49       0.0778
  6507 C14        -12.5140     2.8490    30.5340 C.3      55  POP49      -0.0417
  6508 H14A       -12.5640     3.3110    31.5480 H        55  POP49       0.0778
  6509 H14B       -12.6230     1.8360    30.6420 H        55  POP49       0.0778
  6510 H14C       -11.6740     3.2360    30.0180 H        55  POP49       0.0778
  6511 C15        -14.8690     2.7470    30.5410 C.3      55  POP49      -0.0417
  6512 H15A       -14.6620     2.7820    31.6090 H        55  POP49       0.0778
  6513 H15B       -15.2680     1.7120    30.2940 H        55  POP49       0.0778
  6514 H15C       -15.7910     3.3890    30.4550 H        55  POP49       0.0778
  6515 C11        -13.0310     5.4050    28.4120 C.3      55  POP49       0.0954
  6516 H11A       -13.2670     6.5140    28.2910 H        55  POP49       0.0618
  6517 H11B       -13.4500     4.8890    27.5270 H        55  POP49       0.0618
  6518 P          -10.6310     5.4270    27.3740 P.3      55  POP49       0.2645
  6519 O13         -9.4170     4.6510    27.6680 O.co2    55  POP49      -0.5105
  6520 O14        -10.4640     6.8680    27.2100 O.co2    55  POP49      -0.5105
  6521 O12        -11.6450     5.1220    28.4810 O.3      55  POP49      -0.3154
  6522 O11        -11.2690     4.7810    26.0500 O.3      55  POP49      -0.3181
  6523 C1         -11.4350     5.4790    24.8180 C.3      55  POP49       0.0845
  6524 HA         -10.6020     6.2140    24.7170 H        55  POP49       0.0591
  6525 HB         -12.3110     6.1020    24.7040 H        55  POP49       0.0591
  6526 C2         -11.2950     4.4150    23.6970 C.3      55  POP49       0.1155
  6527 HS         -10.3120     3.8310    23.8760 H        55  POP49       0.0649
  6528 O21        -11.4300     4.9520    22.3950 O.3      55  POP49      -0.3072
  6529 C21        -10.4300     5.6690    21.9430 C.2      55  POP49       0.2626
  6530 O22         -9.4420     5.9780    22.5650 O.2      55  POP49      -0.2650
  6531 C22        -10.7570     5.9620    20.4100 C.3      55  POP49       0.0332
  6532 H2R         -9.9940     6.7480    20.1240 H        55  POP49       0.0366
  6533 H2S        -11.8160     6.2350    20.1750 H        55  POP49       0.0366
  6534 C3         -12.4000     3.2370    23.8630 C.3      55  POP49       0.0860
  6535 HX         -13.3200     3.8680    23.8630 H        55  POP49       0.0593
  6536 HY         -12.2850     2.8830    24.8930 H        55  POP49       0.0593
  6537 O31        -12.2840     2.2220    22.8720 O.3      55  POP49      -0.3125
  6538 C31        -13.3770     1.6910    22.3310 C.2      55  POP49       0.2622
  6539 O32        -14.5590     2.0530    22.5280 O.2      55  POP49      -0.2650
  6540 C32        -13.0040     0.5630    21.4050 C.3      55  POP49       0.0332
  6541 H2X        -13.8490    -0.1210    21.2780 H        55  POP49       0.0366
  6542 H2Y        -12.2150     0.0060    21.8560 H        55  POP49       0.0366
  6543 C23        -10.4330     4.6820    19.6300 C.3      55  POP49      -0.0441
  6544 H3R        -11.1710     3.8640    19.9460 H        55  POP49       0.0270
  6545 H3S         -9.3630     4.3550    19.7600 H        55  POP49       0.0270
  6546 C24        -10.7100     4.7410    18.1160 C.3      55  POP49      -0.0526
  6547 H4R        -10.2870     5.7240    17.8080 H        55  POP49       0.0265
  6548 H4S        -11.8020     4.9280    17.8160 H        55  POP49       0.0265
  6549 C25        -10.1400     3.6120    17.2410 C.3      55  POP49      -0.0530
  6550 H5R        -10.9150     3.0980    16.6020 H        55  POP49       0.0265
  6551 H5S         -9.8290     2.9220    18.0290 H        55  POP49       0.0265
  6552 C26         -8.9440     4.0760    16.4030 C.3      55  POP49      -0.0528
  6553 H6R         -8.4440     3.2200    15.9560 H        55  POP49       0.0265
  6554 H6S         -8.3470     4.5230    17.2360 H        55  POP49       0.0265
  6555 C27         -9.2570     5.0490    15.3370 C.3      55  POP49      -0.0496
  6556 H7R         -9.1920     6.0780    15.6340 H        55  POP49       0.0268
  6557 H7S        -10.1670     4.6250    14.9670 H        55  POP49       0.0268
  6558 C28         -8.1870     5.1110    14.2710 C.3      55  POP49      -0.0348
  6559 H8R         -7.1690     5.2640    14.6420 H        55  POP49       0.0307
  6560 H8S         -8.1200     4.0210    13.7970 H        55  POP49       0.0307
  6561 C29         -8.6060     6.0680    13.1950 C.2      55  POP49      -0.0879
  6562 H91         -9.7420     6.0890    13.1430 H        55  POP49       0.0569
  6563 C210        -7.7710     6.8990    12.5250 C.2      55  POP49      -0.0879
  6564 H101        -8.2410     7.6390    11.8720 H        55  POP49       0.0569
  6565 C211        -6.2660     7.0120    12.6750 C.3      55  POP49      -0.0348
  6566 H11R        -5.8280     6.6910    13.6160 H        55  POP49       0.0307
  6567 H11S        -5.8900     8.0340    12.5440 H        55  POP49       0.0307
  6568 C212        -5.6170     6.0870    11.6000 C.3      55  POP49      -0.0496
  6569 H12R        -6.2220     6.2270    10.7120 H        55  POP49       0.0268
  6570 H12S        -5.7310     5.0010    11.9350 H        55  POP49       0.0268
  6571 C213        -4.1720     6.3710    11.3480 C.3      55  POP49      -0.0528
  6572 H13R        -3.6400     5.4380    11.0720 H        55  POP49       0.0265
  6573 H13S        -3.6160     6.6070    12.2360 H        55  POP49       0.0265
  6574 C214        -3.8140     7.4510    10.3040 C.3      55  POP49      -0.0530
  6575 H14R        -2.7680     7.7630    10.4500 H        55  POP49       0.0265
  6576 H14S        -4.2900     8.4920    10.3550 H        55  POP49       0.0265
  6577 C215        -3.9830     6.9710     8.8000 C.3      55  POP49      -0.0531
  6578 H15R        -4.9970     6.7660     8.4970 H        55  POP49       0.0265
  6579 H15S        -3.4600     5.9900     8.6130 H        55  POP49       0.0265
  6580 C216        -3.4380     8.0040     7.8280 C.3      55  POP49      -0.0533
  6581 H16R        -2.3730     8.2700     8.1730 H        55  POP49       0.0265
  6582 H16S        -3.9910     8.9220     8.0160 H        55  POP49       0.0265
  6583 C217        -3.5200     7.6550     6.3500 C.3      55  POP49      -0.0559
  6584 H17R        -3.2850     8.5300     5.8300 H        55  POP49       0.0263
  6585 H17S        -4.6440     7.5040     6.1300 H        55  POP49       0.0263
  6586 C218        -2.6270     6.4420     5.9370 C.3      55  POP49      -0.0653
  6587 H18R        -1.7700     6.4850     6.5100 H        55  POP49       0.0230
  6588 H18S        -2.2740     6.5630     4.8730 H        55  POP49       0.0230
  6589 H18T        -3.1570     5.4170     6.0840 H        55  POP49       0.0230
  6590 C33        -12.4710     0.9870    20.0060 C.3      55  POP49      -0.0441
  6591 H3X        -12.2760     0.0570    19.4410 H        55  POP49       0.0270
  6592 H3Y        -11.5470     1.5330    20.0480 H        55  POP49       0.0270
  6593 C34        -13.4760     1.7600    19.0750 C.3      55  POP49      -0.0526
  6594 H4X        -12.8540     2.0290    18.1720 H        55  POP49       0.0265
  6595 H4Y        -13.6900     2.6580    19.6340 H        55  POP49       0.0265
  6596 C35        -14.8580     1.0990    18.8170 C.3      55  POP49      -0.0530
  6597 H5X        -15.5550     1.8870    18.3840 H        55  POP49       0.0265
  6598 H5Y        -15.4140     0.7600    19.7040 H        55  POP49       0.0265
  6599 C36        -14.7540    -0.0780    17.8770 C.3      55  POP49      -0.0531
  6600 H6X        -15.7280    -0.6340    17.7050 H        55  POP49       0.0265
  6601 H6Y        -14.0560    -0.8880    18.2390 H        55  POP49       0.0265
  6602 C37        -14.4150     0.3810    16.4600 C.3      55  POP49      -0.0531
  6603 H7X        -13.5130     0.9380    16.4860 H        55  POP49       0.0265
  6604 H7Y        -15.2390     1.1660    16.1890 H        55  POP49       0.0265
  6605 C38        -14.6240    -0.7510    15.4180 C.3      55  POP49      -0.0531
  6606 H8X        -15.6540    -1.1630    15.3200 H        55  POP49       0.0265
  6607 H8Y        -13.8410    -1.5520    15.7300 H        55  POP49       0.0265
  6608 C39        -14.2760    -0.2220    13.9960 C.3      55  POP49      -0.0531
  6609 H9X        -13.2770     0.2970    13.8670 H        55  POP49       0.0265
  6610 H9Y        -14.9760     0.5950    13.6920 H        55  POP49       0.0265
  6611 C310       -14.4080    -1.2170    12.8970 C.3      55  POP49      -0.0531
  6612 H10X       -15.4370    -1.4950    12.8670 H        55  POP49       0.0265
  6613 H10Y       -13.7730    -2.1780    13.1010 H        55  POP49       0.0265
  6614 C311       -13.7980    -0.8250    11.5530 C.3      55  POP49      -0.0531
  6615 H11X       -12.7510    -0.6290    11.6390 H        55  POP49       0.0265
  6616 H11Y       -14.1990     0.1780    11.3610 H        55  POP49       0.0265
  6617 C312       -14.2420    -1.7190    10.4210 C.3      55  POP49      -0.0531
  6618 H12X       -15.3540    -1.8370    10.3460 H        55  POP49       0.0265
  6619 H12Y       -13.9630    -2.8170    10.4750 H        55  POP49       0.0265
  6620 C313       -14.0100    -1.1930     9.0040 C.3      55  POP49      -0.0531
  6621 H13X       -14.8050    -0.4790     8.8010 H        55  POP49       0.0265
  6622 H13Y       -14.0940    -2.0020     8.1460 H        55  POP49       0.0265
  6623 C314       -12.6480    -0.4710     8.8540 C.3      55  POP49      -0.0533
  6624 H14X       -11.7190    -1.1440     9.1000 H        55  POP49       0.0265
  6625 H14Y       -12.6860     0.3710     9.5610 H        55  POP49       0.0265
  6626 C315       -12.5280    -0.0670     7.4060 C.3      55  POP49      -0.0559
  6627 H15X       -13.4110     0.5550     7.2590 H        55  POP49       0.0263
  6628 H15Y       -12.5270    -0.9910     6.8260 H        55  POP49       0.0263
  6629 C316       -11.3500     0.9250     7.1360 C.3      55  POP49      -0.0653
  6630 H16X       -11.1340     0.9730     6.0340 H        55  POP49       0.0230
  6631 H16Y       -10.4470     0.5780     7.5900 H        55  POP49       0.0230
  6632 H16Z       -11.5470     2.0200     7.4930 H        55  POP49       0.0230
  6633 N          -16.7310   -25.9860    21.5050 N.3      56  POP50       0.2385
  6634 C12        -16.9680   -27.0050    20.3360 C.3      56  POP50      -0.0064
  6635 H12A       -17.9110   -27.5680    20.4600 H        56  POP50       0.0838
  6636 H12B       -16.2060   -27.7660    20.2640 H        56  POP50       0.0838
  6637 C13        -15.3090   -25.4400    21.5000 C.3      56  POP50      -0.0417
  6638 H13A       -14.6950   -26.1820    21.7280 H        56  POP50       0.0778
  6639 H13B       -15.0860   -25.2540    20.3950 H        56  POP50       0.0778
  6640 H13C       -15.2360   -24.6890    22.1740 H        56  POP50       0.0778
  6641 C14        -17.7730   -24.9060    21.4830 C.3      56  POP50      -0.0417
  6642 H14A       -17.5810   -24.2240    20.7020 H        56  POP50       0.0778
  6643 H14B       -18.7820   -25.2620    21.5400 H        56  POP50       0.0778
  6644 H14C       -17.7160   -24.3260    22.3680 H        56  POP50       0.0778
  6645 C15        -17.0160   -26.7340    22.7390 C.3      56  POP50      -0.0417
  6646 H15A       -16.3250   -27.5420    22.8840 H        56  POP50       0.0778
  6647 H15B       -17.9810   -27.1320    22.8380 H        56  POP50       0.0778
  6648 H15C       -16.8340   -26.0660    23.5820 H        56  POP50       0.0778
  6649 C11        -17.0200   -26.4580    18.8630 C.3      56  POP50       0.0954
  6650 H11A       -17.9830   -25.9970    18.7130 H        56  POP50       0.0618
  6651 H11B       -17.0740   -27.1870    18.0850 H        56  POP50       0.0618
  6652 P          -16.1190   -24.1430    18.1640 P.3      56  POP50       0.2645
  6653 O13        -14.8020   -23.7130    17.5520 O.co2    56  POP50      -0.5105
  6654 O14        -16.5890   -23.3190    19.3340 O.co2    56  POP50      -0.5105
  6655 O12        -15.9170   -25.6340    18.6270 O.3      56  POP50      -0.3154
  6656 O11        -17.1070   -24.1510    16.9130 O.3      56  POP50      -0.3181
  6657 C1         -16.9370   -25.1010    15.8080 C.3      56  POP50       0.0845
  6658 HA         -17.8670   -25.6880    15.5930 H        56  POP50       0.0591
  6659 HB         -16.1800   -25.8960    16.0770 H        56  POP50       0.0591
  6660 C2         -16.6240   -24.3720    14.4700 C.3      56  POP50       0.1155
  6661 HS         -15.6230   -23.9210    14.7040 H        56  POP50       0.0649
  6662 O21        -17.6900   -23.4990    14.2630 O.3      56  POP50      -0.3072
  6663 C21        -17.2900   -22.4980    13.4610 C.2      56  POP50       0.2626
  6664 O22        -16.2520   -22.4880    12.8590 O.2      56  POP50      -0.2650
  6665 C22        -18.3710   -21.4430    13.4150 C.3      56  POP50       0.0332
  6666 H2R        -17.8380   -20.6270    12.8810 H        56  POP50       0.0366
  6667 H2S        -18.6070   -21.1830    14.4910 H        56  POP50       0.0366
  6668 C3         -16.4820   -25.4040    13.2710 C.3      56  POP50       0.0860
  6669 HX         -15.5160   -25.9860    13.3420 H        56  POP50       0.0593
  6670 HY         -16.3390   -24.8860    12.2950 H        56  POP50       0.0593
  6671 O31        -17.6770   -26.2810    13.0860 O.3      56  POP50      -0.3125
  6672 C31        -17.5550   -27.5770    13.2710 C.2      56  POP50       0.2622
  6673 O32        -16.5560   -28.2170    13.4890 O.2      56  POP50      -0.2650
  6674 C32        -18.9310   -28.1900    13.1990 C.3      56  POP50       0.0332
  6675 H2X        -19.6730   -27.4650    13.5900 H        56  POP50       0.0366
  6676 H2Y        -18.9660   -29.1080    13.8610 H        56  POP50       0.0366
  6677 C23        -19.6490   -21.9270    12.6790 C.3      56  POP50      -0.0441
  6678 H3R        -20.4250   -21.1620    12.7150 H        56  POP50       0.0270
  6679 H3S        -19.8720   -22.9890    13.0310 H        56  POP50       0.0270
  6680 C24        -19.3350   -22.1290    11.1370 C.3      56  POP50      -0.0526
  6681 H4R        -18.7710   -23.0690    11.0580 H        56  POP50       0.0265
  6682 H4S        -18.6850   -21.3790    10.7330 H        56  POP50       0.0265
  6683 C25        -20.6220   -22.2660    10.2930 C.3      56  POP50      -0.0530
  6684 H5R        -21.2120   -21.3230    10.5350 H        56  POP50       0.0265
  6685 H5S        -21.2460   -23.1440    10.6700 H        56  POP50       0.0265
  6686 C26        -20.4320   -22.3360     8.7900 C.3      56  POP50      -0.0528
  6687 H6R        -20.1650   -21.3250     8.4680 H        56  POP50       0.0265
  6688 H6S        -21.3510   -22.6700     8.2990 H        56  POP50       0.0265
  6689 C27        -19.4850   -23.4850     8.4220 C.3      56  POP50      -0.0496
  6690 H7R        -18.5190   -23.2590     8.9200 H        56  POP50       0.0268
  6691 H7S        -19.2810   -23.4370     7.3910 H        56  POP50       0.0268
  6692 C28        -19.9360   -24.9330     8.8600 C.3      56  POP50      -0.0348
  6693 H8R        -20.9420   -25.1000     8.5200 H        56  POP50       0.0307
  6694 H8S        -20.0280   -24.9610    10.0040 H        56  POP50       0.0307
  6695 C29        -18.9780   -25.9980     8.5180 C.2      56  POP50      -0.0879
  6696 H91        -17.9660   -25.8850     8.9580 H        56  POP50       0.0569
  6697 C210       -19.1790   -27.1100     7.8670 C.2      56  POP50      -0.0879
  6698 H101       -18.3730   -27.8480     7.8450 H        56  POP50       0.0569
  6699 C211       -20.4500   -27.6220     7.2140 C.3      56  POP50      -0.0348
  6700 H11R       -21.2690   -27.2840     7.7890 H        56  POP50       0.0307
  6701 H11S       -20.5180   -28.7300     7.2800 H        56  POP50       0.0307
  6702 C212       -20.4010   -27.3100     5.6910 C.3      56  POP50      -0.0496
  6703 H12R       -19.5710   -28.0020     5.3250 H        56  POP50       0.0268
  6704 H12S       -20.2610   -26.2350     5.6380 H        56  POP50       0.0268
  6705 C213       -21.7030   -27.8290     4.9160 C.3      56  POP50      -0.0528
  6706 H13R       -22.5650   -27.3970     5.3740 H        56  POP50       0.0265
  6707 H13S       -21.8160   -28.8940     4.9560 H        56  POP50       0.0265
  6708 C214       -21.7670   -27.3840     3.4850 C.3      56  POP50      -0.0530
  6709 H14R       -20.9380   -27.8640     3.0080 H        56  POP50       0.0265
  6710 H14S       -21.6270   -26.2600     3.4290 H        56  POP50       0.0265
  6711 C215       -22.9660   -27.9070     2.7480 C.3      56  POP50      -0.0531
  6712 H15R       -23.9060   -27.6440     3.3480 H        56  POP50       0.0265
  6713 H15S       -22.9400   -28.9970     2.6460 H        56  POP50       0.0265
  6714 C216       -23.1320   -27.3610     1.3490 C.3      56  POP50      -0.0533
  6715 H16R       -22.2580   -27.5950     0.6810 H        56  POP50       0.0265
  6716 H16S       -23.2700   -26.2690     1.4800 H        56  POP50       0.0265
  6717 C217       -24.3930   -27.9390     0.6450 C.3      56  POP50      -0.0559
  6718 H17R       -25.3080   -27.3850     1.0520 H        56  POP50       0.0263
  6719 H17S       -24.5760   -29.0160     0.7820 H        56  POP50       0.0263
  6720 C218       -24.2120   -27.6150    -0.8170 C.3      56  POP50      -0.0653
  6721 H18R       -23.4790   -26.7800    -1.0350 H        56  POP50       0.0230
  6722 H18S       -25.1000   -27.2600    -1.2660 H        56  POP50       0.0230
  6723 H18T       -23.7810   -28.4790    -1.3510 H        56  POP50       0.0230
  6724 C33        -19.4440   -28.4090    11.7200 C.3      56  POP50      -0.0441
  6725 H3X        -18.7510   -29.1450    11.1240 H        56  POP50       0.0270
  6726 H3Y        -19.5180   -27.4150    11.1250 H        56  POP50       0.0270
  6727 C34        -20.8710   -28.9890    11.8700 C.3      56  POP50      -0.0526
  6728 H4X        -21.4670   -28.2680    12.5110 H        56  POP50       0.0265
  6729 H4Y        -20.8960   -29.9360    12.3690 H        56  POP50       0.0265
  6730 C35        -21.6370   -29.0140    10.5170 C.3      56  POP50      -0.0530
  6731 H5X        -21.2030   -29.6990     9.8190 H        56  POP50       0.0265
  6732 H5Y        -21.6080   -27.9710    10.0680 H        56  POP50       0.0265
  6733 C36        -23.0640   -29.4250    10.8860 C.3      56  POP50      -0.0531
  6734 H6X        -23.5310   -28.4970    11.2990 H        56  POP50       0.0265
  6735 H6Y        -23.0040   -30.2380    11.7100 H        56  POP50       0.0265
  6736 C37        -23.9190   -29.9550     9.6560 C.3      56  POP50      -0.0531
  6737 H7X        -24.7700   -30.6160     9.9140 H        56  POP50       0.0265
  6738 H7Y        -23.3160   -30.4850     8.9150 H        56  POP50       0.0265
  6739 C38        -24.5310   -28.8750     8.7880 C.3      56  POP50      -0.0531
  6740 H8X        -23.7310   -28.2170     8.4620 H        56  POP50       0.0265
  6741 H8Y        -25.2050   -28.1160     9.3200 H        56  POP50       0.0265
  6742 C39        -25.3750   -29.3700     7.5930 C.3      56  POP50      -0.0531
  6743 H9X        -26.3300   -28.8750     7.6170 H        56  POP50       0.0265
  6744 H9Y        -25.5200   -30.4920     7.7080 H        56  POP50       0.0265
  6745 C310       -24.5960   -29.1750     6.2130 C.3      56  POP50      -0.0531
  6746 H10X       -23.6570   -29.5260     6.5350 H        56  POP50       0.0265
  6747 H10Y       -24.5080   -28.0900     6.0680 H        56  POP50       0.0265
  6748 C311       -25.2170   -29.9670     5.0730 C.3      56  POP50      -0.0531
  6749 H11X       -25.5380   -30.9860     5.2960 H        56  POP50       0.0265
  6750 H11Y       -24.3690   -30.0470     4.3710 H        56  POP50       0.0265
  6751 C312       -26.2820   -29.1950     4.3810 C.3      56  POP50      -0.0531
  6752 H12X       -25.9770   -28.1630     4.0210 H        56  POP50       0.0265
  6753 H12Y       -27.2240   -29.0560     5.1040 H        56  POP50       0.0265
  6754 C313       -26.8160   -29.9630     3.2380 C.3      56  POP50      -0.0531
  6755 H13X       -27.1860   -31.0320     3.5590 H        56  POP50       0.0265
  6756 H13Y       -25.9650   -30.1330     2.5160 H        56  POP50       0.0265
  6757 C314       -27.7840   -29.1350     2.3280 C.3      56  POP50      -0.0533
  6758 H14X       -27.5180   -28.2150     1.8900 H        56  POP50       0.0265
  6759 H14Y       -28.7350   -28.7620     2.8600 H        56  POP50       0.0265
  6760 C315       -28.2640   -29.9970     1.1050 C.3      56  POP50      -0.0559
  6761 H15X       -28.5610   -30.9850     1.5390 H        56  POP50       0.0263
  6762 H15Y       -27.2550   -30.2350     0.5400 H        56  POP50       0.0263
  6763 C316       -29.5030   -29.3350     0.4230 C.3      56  POP50      -0.0653
  6764 H16X       -29.9210   -29.9620    -0.2750 H        56  POP50       0.0230
  6765 H16Y       -29.1580   -28.3620    -0.0790 H        56  POP50       0.0230
  6766 H16Z       -30.2320   -28.9810     1.1650 H        56  POP50       0.0230
  6767 N           23.1480    10.2510    23.8840 N.3      57  POP51       0.2385
  6768 C12         22.3550     9.7860    22.6660 C.3      57  POP51      -0.0064
  6769 H12A        22.7940    10.2780    21.7610 H        57  POP51       0.0838
  6770 H12B        21.3810    10.2520    22.7750 H        57  POP51       0.0838
  6771 C13         24.5060     9.5470    23.9940 C.3      57  POP51      -0.0417
  6772 H13A        24.4160     8.4510    23.9700 H        57  POP51       0.0778
  6773 H13B        25.1740     9.7540    23.1650 H        57  POP51       0.0778
  6774 H13C        24.9810     9.7100    24.9750 H        57  POP51       0.0778
  6775 C14         23.4070    11.6650    23.8510 C.3      57  POP51      -0.0417
  6776 H14A        23.9430    11.8560    22.8900 H        57  POP51       0.0778
  6777 H14B        22.4570    12.3190    23.8600 H        57  POP51       0.0778
  6778 H14C        23.9450    12.0280    24.7320 H        57  POP51       0.0778
  6779 C15         22.4630    10.0710    25.1520 C.3      57  POP51      -0.0417
  6780 H15A        22.0220     9.0410    25.1640 H        57  POP51       0.0778
  6781 H15B        21.7530    10.8550    25.4320 H        57  POP51       0.0778
  6782 H15C        23.2400    10.0060    25.9850 H        57  POP51       0.0778
  6783 C11         22.0440     8.3000    22.5660 C.3      57  POP51       0.0954
  6784 H11A        23.0000     7.7600    22.6560 H        57  POP51       0.0618
  6785 H11B        21.7310     7.9620    21.5850 H        57  POP51       0.0618
  6786 P           19.6130     8.4270    23.4220 P.3      57  POP51       0.2645
  6787 O13         19.5920     9.8360    23.1040 O.co2    57  POP51      -0.5105
  6788 O14         18.7510     7.9860    24.5280 O.co2    57  POP51      -0.5105
  6789 O12         21.0640     7.9180    23.5740 O.3      57  POP51      -0.3154
  6790 O11         19.1150     7.7790    22.1110 O.3      57  POP51      -0.3181
  6791 C1          19.3970     6.3450    21.7710 C.3      57  POP51       0.0845
  6792 HA          18.5410     5.7800    22.0860 H        57  POP51       0.0591
  6793 HB          20.2570     5.9790    22.4180 H        57  POP51       0.0591
  6794 C2          19.5730     6.2270    20.2540 C.3      57  POP51       0.1155
  6795 HS          20.5780     6.7220    19.9370 H        57  POP51       0.0649
  6796 O21         18.2870     6.5040    19.6100 O.3      57  POP51      -0.3072
  6797 C21         18.4780     7.5570    18.7470 C.2      57  POP51       0.2626
  6798 O22         19.5140     8.1800    18.6050 O.2      57  POP51      -0.2650
  6799 C22         17.1490     7.9540    18.0660 C.3      57  POP51       0.0332
  6800 H2R         16.8540     8.9730    18.4430 H        57  POP51       0.0366
  6801 H2S         16.3420     7.2540    18.3510 H        57  POP51       0.0366
  6802 C3          20.0620     4.7690    19.9320 C.3      57  POP51       0.0860
  6803 HX          19.2510     4.1970    20.3450 H        57  POP51       0.0593
  6804 HY          21.0360     4.4190    20.4680 H        57  POP51       0.0593
  6805 O31         20.0610     4.4670    18.5160 O.3      57  POP51      -0.3125
  6806 C31         21.2740     4.7490    17.9220 C.2      57  POP51       0.2622
  6807 O32         22.1170     5.3710    18.5590 O.2      57  POP51      -0.2650
  6808 C32         21.3770     4.1280    16.5580 C.3      57  POP51       0.0332
  6809 H2X         20.5300     4.4510    15.9280 H        57  POP51       0.0366
  6810 H2Y         21.2470     2.9370    16.7000 H        57  POP51       0.0366
  6811 C23         17.2820     7.6670    16.5430 C.3      57  POP51      -0.0441
  6812 H3R         16.2770     7.6010    16.1590 H        57  POP51       0.0270
  6813 H3S         17.6540     6.6470    16.4230 H        57  POP51       0.0270
  6814 C24         18.0910     8.6910    15.6990 C.3      57  POP51      -0.0526
  6815 H4R         19.1780     8.4700    15.6370 H        57  POP51       0.0265
  6816 H4S         18.0720     9.7610    16.0430 H        57  POP51       0.0265
  6817 C25         17.5800     8.5970    14.1990 C.3      57  POP51      -0.0530
  6818 H5R         16.6170     8.0590    14.1820 H        57  POP51       0.0265
  6819 H5S         18.2750     8.0510    13.6370 H        57  POP51       0.0265
  6820 C26         17.0930     9.9360    13.5590 C.3      57  POP51      -0.0528
  6821 H6R         16.9670     9.6880    12.4960 H        57  POP51       0.0265
  6822 H6S         17.9070    10.6430    13.7960 H        57  POP51       0.0265
  6823 C27         15.8040    10.4830    14.2040 C.3      57  POP51      -0.0496
  6824 H7R         16.0560    10.9800    15.1700 H        57  POP51       0.0268
  6825 H7S         15.2420     9.4970    14.4250 H        57  POP51       0.0268
  6826 C28         15.0100    11.3860    13.2520 C.3      57  POP51      -0.0348
  6827 H8R         15.5500    12.2990    12.9560 H        57  POP51       0.0307
  6828 H8S         14.2000    11.7980    13.8370 H        57  POP51       0.0307
  6829 C29         14.4990    10.7400    12.0100 C.2      57  POP51      -0.0879
  6830 H91         13.9540     9.8060    12.2410 H        57  POP51       0.0569
  6831 C210        14.6790    10.9730    10.7660 C.2      57  POP51      -0.0879
  6832 H101        14.1560    10.4960     9.9240 H        57  POP51       0.0569
  6833 C211        15.6010    12.0600    10.2040 C.3      57  POP51      -0.0348
  6834 H11R        16.4200    12.2580    10.9470 H        57  POP51       0.0307
  6835 H11S        14.9200    12.9530    10.0740 H        57  POP51       0.0307
  6836 C212        16.3170    11.8460     8.7650 C.3      57  POP51      -0.0496
  6837 H12R        17.1920    12.5050     8.6750 H        57  POP51       0.0268
  6838 H12S        15.5070    12.1820     8.0280 H        57  POP51       0.0268
  6839 C213        16.8780    10.4250     8.4380 C.3      57  POP51      -0.0528
  6840 H13R        16.3640     9.7440     9.1020 H        57  POP51       0.0265
  6841 H13S        17.9360    10.3690     8.8260 H        57  POP51       0.0265
  6842 C214        16.7230    10.0780     6.9740 C.3      57  POP51      -0.0530
  6843 H14R        17.3950     9.1670     6.7450 H        57  POP51       0.0265
  6844 H14S        17.1020    10.8830     6.3080 H        57  POP51       0.0265
  6845 C215        15.3250     9.8780     6.4720 C.3      57  POP51      -0.0531
  6846 H15R        14.7570    10.7810     6.4760 H        57  POP51       0.0265
  6847 H15S        14.6940     9.2560     7.1590 H        57  POP51       0.0265
  6848 C216        15.3500     9.3860     5.0450 C.3      57  POP51      -0.0533
  6849 H16R        15.6810     8.2920     5.1400 H        57  POP51       0.0265
  6850 H16S        16.1390     9.7820     4.3910 H        57  POP51       0.0265
  6851 C217        14.0040     9.4280     4.2790 C.3      57  POP51      -0.0559
  6852 H17R        13.8580    10.4180     4.0160 H        57  POP51       0.0263
  6853 H17S        13.2810     9.0960     5.1300 H        57  POP51       0.0263
  6854 C218        14.0780     8.3910     3.2080 C.3      57  POP51      -0.0653
  6855 H18R        14.9580     8.6390     2.5150 H        57  POP51       0.0230
  6856 H18S        13.0960     8.3470     2.5600 H        57  POP51       0.0230
  6857 H18T        14.2270     7.3890     3.6470 H        57  POP51       0.0230
  6858 C33         22.7380     4.3190    15.8530 C.3      57  POP51      -0.0441
  6859 H3X         23.4670     3.6190    16.3600 H        57  POP51       0.0270
  6860 H3Y         23.1360     5.3690    16.0570 H        57  POP51       0.0270
  6861 C34         22.5950     3.9630    14.3410 C.3      57  POP51      -0.0526
  6862 H4X         22.1030     4.8590    13.8990 H        57  POP51       0.0265
  6863 H4Y         21.9990     3.0710    14.1200 H        57  POP51       0.0265
  6864 C35         23.9620     3.7580    13.6360 C.3      57  POP51      -0.0530
  6865 H5X         24.3100     2.7030    13.9130 H        57  POP51       0.0265
  6866 H5Y         24.7380     4.3850    14.0510 H        57  POP51       0.0265
  6867 C36         23.9310     4.0730    12.1790 C.3      57  POP51      -0.0531
  6868 H6X         23.5420     5.1220    12.0650 H        57  POP51       0.0265
  6869 H6Y         23.2590     3.4490    11.6360 H        57  POP51       0.0265
  6870 C37         25.3360     3.8890    11.5450 C.3      57  POP51      -0.0531
  6871 H7X         25.7700     2.8720    11.6050 H        57  POP51       0.0265
  6872 H7Y         25.9730     4.5710    12.1690 H        57  POP51       0.0265
  6873 C38         25.3090     4.4130    10.1190 C.3      57  POP51      -0.0531
  6874 H8X         24.6860     5.3610    10.2200 H        57  POP51       0.0265
  6875 H8Y         24.7100     3.6140     9.5830 H        57  POP51       0.0265
  6876 C39         26.7180     4.5240     9.6040 C.3      57  POP51      -0.0531
  6877 H9X         27.1730     3.5040     9.6790 H        57  POP51       0.0265
  6878 H9Y         27.2180     5.3300    10.2000 H        57  POP51       0.0265
  6879 C310        26.7700     4.8670     8.0900 C.3      57  POP51      -0.0531
  6880 H10X        26.2800     5.8410     7.8670 H        57  POP51       0.0265
  6881 H10Y        26.3300     4.1000     7.4560 H        57  POP51       0.0265
  6882 C311        28.1670     4.9760     7.5600 C.3      57  POP51      -0.0531
  6883 H11X        28.7790     5.6250     8.2010 H        57  POP51       0.0265
  6884 H11Y        28.1390     5.5180     6.5850 H        57  POP51       0.0265
  6885 C312        28.9150     3.6150     7.4180 C.3      57  POP51      -0.0531
  6886 H12X        28.4410     2.8670     6.6760 H        57  POP51       0.0265
  6887 H12Y        28.8640     3.2230     8.4690 H        57  POP51       0.0265
  6888 C313        30.3460     3.8050     7.0200 C.3      57  POP51      -0.0531
  6889 H13X        30.8750     4.5510     7.7370 H        57  POP51       0.0265
  6890 H13Y        30.2710     4.1710     6.0030 H        57  POP51       0.0265
  6891 C314        31.1560     2.5130     6.9040 C.3      57  POP51      -0.0533
  6892 H14X        31.9620     2.7750     6.1460 H        57  POP51       0.0265
  6893 H14Y        30.5530     1.6790     6.5190 H        57  POP51       0.0265
  6894 C315        31.8570     2.0620     8.2760 C.3      57  POP51      -0.0559
  6895 H15X        31.0150     1.6550     8.9030 H        57  POP51       0.0263
  6896 H15Y        31.9290     2.9550     8.8700 H        57  POP51       0.0263
  6897 C316        33.1620     1.2840     8.2070 C.3      57  POP51      -0.0653
  6898 H16X        33.1790     0.3680     7.5950 H        57  POP51       0.0230
  6899 H16Y        33.5080     0.9760     9.2450 H        57  POP51       0.0230
  6900 H16Z        33.9160     1.9450     7.7720 H        57  POP51       0.0230
  6901 N          -11.9870    -8.7560    29.9620 N.3      58  POP52       0.2385
  6902 C12        -10.8720    -8.1510    29.2020 C.3      58  POP52      -0.0064
  6903 H12A        -9.9920    -8.8210    29.2570 H        58  POP52       0.0838
  6904 H12B       -10.4500    -7.2460    29.8000 H        58  POP52       0.0838
  6905 C13        -11.4850    -8.9590    31.3360 C.3      58  POP52      -0.0417
  6906 H13A       -10.5130    -9.4970    31.3260 H        58  POP52       0.0778
  6907 H13B       -11.3730    -7.9240    31.7500 H        58  POP52       0.0778
  6908 H13C       -12.1830    -9.4810    31.9670 H        58  POP52       0.0778
  6909 C14        -13.1060    -7.7920    30.0970 C.3      58  POP52      -0.0417
  6910 H14A       -13.6560    -7.5880    29.1860 H        58  POP52       0.0778
  6911 H14B       -13.8890    -8.0870    30.7770 H        58  POP52       0.0778
  6912 H14C       -12.6910    -6.8230    30.4470 H        58  POP52       0.0778
  6913 C15        -12.5110   -10.0340    29.4480 C.3      58  POP52      -0.0417
  6914 H15A       -11.7590   -10.7640    29.5630 H        58  POP52       0.0778
  6915 H15B       -12.7850    -9.9020    28.3900 H        58  POP52       0.0778
  6916 H15C       -13.5050   -10.3040    29.8310 H        58  POP52       0.0778
  6917 C11        -11.2060    -7.6320    27.7820 C.3      58  POP52       0.0954
  6918 H11A       -10.3310    -7.1160    27.3570 H        58  POP52       0.0618
  6919 H11B       -11.9940    -6.9060    27.8760 H        58  POP52       0.0618
  6920 P          -10.7050    -9.9620    26.5600 P.3      58  POP52       0.2645
  6921 O13        -11.5620   -11.1330    26.5640 O.co2    58  POP52      -0.5105
  6922 O14         -9.4900   -10.0780    27.3820 O.co2    58  POP52      -0.5105
  6923 O12        -11.6260    -8.6600    26.8370 O.3      58  POP52      -0.3154
  6924 O11        -10.1160    -9.7550    25.1360 O.3      58  POP52      -0.3181
  6925 C1         -10.4770    -8.6650    24.3140 C.3      58  POP52       0.0845
  6926 HA          -9.6220    -8.5950    23.5470 H        58  POP52       0.0591
  6927 HB         -10.5030    -7.7000    24.9380 H        58  POP52       0.0591
  6928 C2         -11.7880    -8.7100    23.5250 C.3      58  POP52       0.1155
  6929 HS         -12.5270    -8.8560    24.3080 H        58  POP52       0.0649
  6930 O21        -11.6950    -9.8600    22.7290 O.3      58  POP52      -0.3072
  6931 C21        -12.8480   -10.2010    22.1870 C.2      58  POP52       0.2626
  6932 O22        -13.9360    -9.8670    22.6120 O.2      58  POP52      -0.2650
  6933 C22        -12.5740   -11.1770    21.0500 C.3      58  POP52       0.0332
  6934 H2R        -13.0540   -12.1500    21.4270 H        58  POP52       0.0366
  6935 H2S        -11.5000   -11.3070    20.8200 H        58  POP52       0.0366
  6936 C3         -12.0890    -7.3680    22.7560 C.3      58  POP52       0.0860
  6937 HX         -12.1870    -6.5370    23.4550 H        58  POP52       0.0593
  6938 HY         -13.0890    -7.4200    22.2600 H        58  POP52       0.0593
  6939 O31        -11.0220    -6.9890    21.9160 O.3      58  POP52      -0.3125
  6940 C31        -10.9430    -7.2900    20.6220 C.2      58  POP52       0.2622
  6941 O32        -11.8150    -7.7550    19.9230 O.2      58  POP52      -0.2650
  6942 C32         -9.5150    -6.9220    20.1320 C.3      58  POP52       0.0332
  6943 H2X         -8.7980    -7.2980    20.8700 H        58  POP52       0.0366
  6944 H2Y         -9.4910    -5.8140    20.0010 H        58  POP52       0.0366
  6945 C23        -13.3500   -10.7660    19.7570 C.3      58  POP52      -0.0441
  6946 H3R        -13.0140    -9.7650    19.3560 H        58  POP52       0.0270
  6947 H3S        -14.4170   -10.6230    19.9480 H        58  POP52       0.0270
  6948 C24        -13.1390   -11.8250    18.5830 C.3      58  POP52      -0.0526
  6949 H4R        -13.6270   -11.4770    17.6540 H        58  POP52       0.0265
  6950 H4S        -13.7940   -12.6500    18.8710 H        58  POP52       0.0265
  6951 C25        -11.7280   -12.2900    18.2290 C.3      58  POP52      -0.0530
  6952 H5R        -11.7530   -13.0080    17.3070 H        58  POP52       0.0265
  6953 H5S        -11.2670   -12.8670    19.0220 H        58  POP52       0.0265
  6954 C26        -10.7840   -11.0720    17.8380 C.3      58  POP52      -0.0528
  6955 H6R         -9.7980   -11.4640    17.5500 H        58  POP52       0.0265
  6956 H6S        -10.7970   -10.4920    18.7190 H        58  POP52       0.0265
  6957 C27        -11.2890   -10.2280    16.6750 C.3      58  POP52      -0.0496
  6958 H7R        -10.7780    -9.2710    16.5950 H        58  POP52       0.0268
  6959 H7S        -12.2470    -9.8640    16.8570 H        58  POP52       0.0268
  6960 C28        -11.2890   -10.8750    15.2250 C.3      58  POP52      -0.0348
  6961 H8R        -12.1090   -11.7060    15.1660 H        58  POP52       0.0307
  6962 H8S        -10.3010   -11.3960    15.0720 H        58  POP52       0.0307
  6963 C29        -11.6190    -9.9430    14.0490 C.2      58  POP52      -0.0879
  6964 H91        -12.7380    -9.8220    13.7720 H        58  POP52       0.0569
  6965 C210       -10.6480    -9.2360    13.3700 C.2      58  POP52      -0.0879
  6966 H101       -11.1450    -8.7190    12.5570 H        58  POP52       0.0569
  6967 C211        -9.2150    -9.1310    13.4660 C.3      58  POP52      -0.0348
  6968 H11R        -8.7420   -10.1040    13.5740 H        58  POP52       0.0307
  6969 H11S        -9.0520    -8.5020    14.3870 H        58  POP52       0.0307
  6970 C212        -8.5520    -8.5050    12.2480 C.3      58  POP52      -0.0496
  6971 H12R        -7.6310    -7.9830    12.5810 H        58  POP52       0.0268
  6972 H12S        -9.2480    -7.6890    11.8910 H        58  POP52       0.0268
  6973 C213        -8.2370    -9.4320    11.1040 C.3      58  POP52      -0.0528
  6974 H13R        -9.2400   -10.0190    10.9010 H        58  POP52       0.0265
  6975 H13S        -7.4810   -10.2150    11.4190 H        58  POP52       0.0265
  6976 C214        -7.7170    -8.7840     9.8160 C.3      58  POP52      -0.0530
  6977 H14R        -6.8100    -8.2170    10.0790 H        58  POP52       0.0265
  6978 H14S        -8.5460    -8.0040     9.6290 H        58  POP52       0.0265
  6979 C215        -7.3730    -9.6860     8.6710 C.3      58  POP52      -0.0531
  6980 H15R        -7.9710   -10.6050     8.6950 H        58  POP52       0.0265
  6981 H15S        -6.3770   -10.1380     8.7930 H        58  POP52       0.0265
  6982 C216        -7.3350    -8.8720     7.3410 C.3      58  POP52      -0.0533
  6983 H16R        -6.7500    -9.3770     6.5280 H        58  POP52       0.0265
  6984 H16S        -7.0280    -7.8370     7.5240 H        58  POP52       0.0265
  6985 C217        -8.7380    -8.7390     6.7430 C.3      58  POP52      -0.0559
  6986 H17R        -8.7110    -8.0940     5.8340 H        58  POP52       0.0263
  6987 H17S        -9.2960    -8.1690     7.4760 H        58  POP52       0.0263
  6988 C218        -9.4270   -10.0610     6.3630 C.3      58  POP52      -0.0653
  6989 H18R        -8.6900   -10.7260     5.8730 H        58  POP52       0.0230
  6990 H18S       -10.2930    -9.8200     5.7730 H        58  POP52       0.0230
  6991 H18T        -9.7220   -10.5700     7.3030 H        58  POP52       0.0230
  6992 C33         -9.0020    -7.5040    18.8090 C.3      58  POP52      -0.0441
  6993 H3X         -9.7760    -7.2950    18.0530 H        58  POP52       0.0270
  6994 H3Y         -8.8080    -8.5520    18.7950 H        58  POP52       0.0270
  6995 C34         -7.6900    -6.8630    18.3350 C.3      58  POP52      -0.0526
  6996 H4X         -6.8830    -7.5310    18.5280 H        58  POP52       0.0265
  6997 H4Y         -7.5620    -5.9190    19.0070 H        58  POP52       0.0265
  6998 C35         -7.7190    -6.2240    16.9600 C.3      58  POP52      -0.0530
  6999 H5X         -8.7200    -5.6880    16.8690 H        58  POP52       0.0265
  7000 H5Y         -7.6160    -6.9520    16.1560 H        58  POP52       0.0265
  7001 C36         -6.6390    -5.1640    16.8050 C.3      58  POP52      -0.0531
  7002 H6X         -5.6230    -5.5360    16.9980 H        58  POP52       0.0265
  7003 H6Y         -6.7970    -4.3800    17.5620 H        58  POP52       0.0265
  7004 C37         -6.6940    -4.4230    15.3950 C.3      58  POP52      -0.0531
  7005 H7X         -6.0960    -3.4390    15.4920 H        58  POP52       0.0265
  7006 H7Y         -7.7900    -4.3860    15.0850 H        58  POP52       0.0265
  7007 C38         -6.0860    -5.3400    14.2900 C.3      58  POP52      -0.0531
  7008 H8X         -6.7220    -6.2920    14.3550 H        58  POP52       0.0265
  7009 H8Y         -5.0100    -5.6430    14.5820 H        58  POP52       0.0265
  7010 C39         -6.2420    -4.7310    12.9750 C.3      58  POP52      -0.0531
  7011 H9X         -7.2620    -4.2480    12.9390 H        58  POP52       0.0265
  7012 H9Y         -6.2430    -5.6820    12.3460 H        58  POP52       0.0265
  7013 C310        -5.1000    -3.7940    12.6060 C.3      58  POP52      -0.0531
  7014 H10X        -4.1460    -4.4280    12.8500 H        58  POP52       0.0265
  7015 H10Y        -5.0720    -2.8410    13.1920 H        58  POP52       0.0265
  7016 C311        -5.1970    -3.2710    11.1300 C.3      58  POP52      -0.0531
  7017 H11X        -5.0060    -4.2160    10.5130 H        58  POP52       0.0265
  7018 H11Y        -4.1740    -2.7500    11.0110 H        58  POP52       0.0265
  7019 C312        -6.4180    -2.4070    10.8590 C.3      58  POP52      -0.0531
  7020 H12X        -6.4430    -1.3900    11.3510 H        58  POP52       0.0265
  7021 H12Y        -7.3690    -2.9180    11.1440 H        58  POP52       0.0265
  7022 C313        -6.5270    -2.0100     9.3220 C.3      58  POP52      -0.0531
  7023 H13X        -6.3480    -2.9310     8.6680 H        58  POP52       0.0265
  7024 H13Y        -5.6260    -1.3710     9.1820 H        58  POP52       0.0265
  7025 C314        -7.7970    -1.2820     8.8980 C.3      58  POP52      -0.0533
  7026 H14X        -8.1820    -0.8430     9.8690 H        58  POP52       0.0265
  7027 H14Y        -8.5250    -2.0890     8.5130 H        58  POP52       0.0265
  7028 C315        -7.5140    -0.2360     7.8610 C.3      58  POP52      -0.0559
  7029 H15X        -6.7080     0.4360     8.3120 H        58  POP52       0.0263
  7030 H15Y        -8.4050     0.5250     7.8750 H        58  POP52       0.0263
  7031 C316        -7.2920    -0.7360     6.4680 C.3      58  POP52      -0.0653
  7032 H16X        -8.1200    -1.0760     5.8380 H        58  POP52       0.0230
  7033 H16Y        -6.6450    -1.6210     6.5030 H        58  POP52       0.0230
  7034 H16Z        -6.7070     0.1460     6.0120 H        58  POP52       0.0230
  7035 N          -20.1030    25.7550    21.6300 N.3      59  POP53       0.2385
  7036 C12        -19.5440    24.3920    21.5330 C.3      59  POP53      -0.0064
  7037 H12A       -20.3200    23.6110    21.4170 H        59  POP53       0.0838
  7038 H12B       -19.0760    24.1050    22.5100 H        59  POP53       0.0838
  7039 C13        -20.6680    26.2070    20.2890 C.3      59  POP53      -0.0417
  7040 H13A       -21.1780    27.1230    20.3870 H        59  POP53       0.0778
  7041 H13B       -19.8860    26.1930    19.5340 H        59  POP53       0.0778
  7042 H13C       -21.5290    25.5130    20.0430 H        59  POP53       0.0778
  7043 C14        -21.1810    25.9920    22.6230 C.3      59  POP53      -0.0417
  7044 H14A       -22.1360    25.5620    22.4790 H        59  POP53       0.0778
  7045 H14B       -20.7440    25.7560    23.6060 H        59  POP53       0.0778
  7046 H14C       -21.3410    27.0810    22.5630 H        59  POP53       0.0778
  7047 C15        -18.9650    26.7690    21.8820 C.3      59  POP53      -0.0417
  7048 H15A       -18.2020    26.6330    21.0880 H        59  POP53       0.0778
  7049 H15B       -18.6340    26.3730    22.8980 H        59  POP53       0.0778
  7050 H15C       -19.2450    27.7890    22.0300 H        59  POP53       0.0778
  7051 C11        -18.4610    24.1090    20.4560 C.3      59  POP53       0.0954
  7052 H11A       -18.0740    23.1330    20.7120 H        59  POP53       0.0618
  7053 H11B       -17.5330    24.8270    20.6850 H        59  POP53       0.0618
  7054 P          -18.1460    24.9320    17.9960 P.3      59  POP53       0.2645
  7055 O13        -16.7300    24.5590    17.9070 O.co2    59  POP53      -0.5105
  7056 O14        -18.3210    26.3810    18.1810 O.co2    59  POP53      -0.5105
  7057 O12        -18.8910    24.0360    19.0970 O.3      59  POP53      -0.3154
  7058 O11        -18.9280    24.5920    16.6840 O.3      59  POP53      -0.3181
  7059 C1         -20.1300    25.2170    16.3170 C.3      59  POP53       0.0845
  7060 HA         -20.0730    26.2730    16.1050 H        59  POP53       0.0591
  7061 HB         -20.9890    24.9810    17.0780 H        59  POP53       0.0591
  7062 C2         -20.7410    24.6850    15.0130 C.3      59  POP53       0.1155
  7063 HS         -21.7270    25.1920    14.8870 H        59  POP53       0.0649
  7064 O21        -21.0310    23.2700    15.0750 O.3      59  POP53      -0.3072
  7065 C21        -22.1440    22.9190    15.6720 C.2      59  POP53       0.2626
  7066 O22        -22.8410    23.7250    16.2600 O.2      59  POP53      -0.2650
  7067 C22        -22.5130    21.4660    15.4890 C.3      59  POP53       0.0332
  7068 H2R        -22.9480    21.1710    16.4720 H        59  POP53       0.0366
  7069 H2S        -21.5610    20.8770    15.5210 H        59  POP53       0.0366
  7070 C3         -19.7220    24.9730    13.9230 C.3      59  POP53       0.0860
  7071 HX         -18.7960    24.3880    14.1390 H        59  POP53       0.0593
  7072 HY         -19.5820    26.1240    13.9570 H        59  POP53       0.0593
  7073 O31        -20.1150    24.5250    12.6150 O.3      59  POP53      -0.3125
  7074 C31        -21.0790    25.0130    11.9290 C.2      59  POP53       0.2622
  7075 O32        -21.8050    25.8580    12.3660 O.2      59  POP53      -0.2650
  7076 C32        -21.1060    24.4020    10.4740 C.3      59  POP53       0.0332
  7077 H2X        -20.4430    23.4630    10.5570 H        59  POP53       0.0366
  7078 H2Y        -20.6430    25.2090     9.7800 H        59  POP53       0.0366
  7079 C23        -23.4710    21.0960    14.2920 C.3      59  POP53      -0.0441
  7080 H3R        -24.1240    21.8840    14.1070 H        59  POP53       0.0270
  7081 H3S        -24.0710    20.2560    14.5610 H        59  POP53       0.0270
  7082 C24        -22.7250    20.8200    12.9580 C.3      59  POP53      -0.0526
  7083 H4R        -22.0430    21.7350    12.9810 H        59  POP53       0.0265
  7084 H4S        -23.3990    20.8280    12.0370 H        59  POP53       0.0265
  7085 C25        -22.0130    19.4540    13.0130 C.3      59  POP53      -0.0530
  7086 H5R        -22.6900    18.6650    13.2420 H        59  POP53       0.0265
  7087 H5S        -21.2500    19.5290    13.8440 H        59  POP53       0.0265
  7088 C26        -21.3150    19.0850    11.6660 C.3      59  POP53      -0.0528
  7089 H6R        -22.0990    18.9540    10.8680 H        59  POP53       0.0265
  7090 H6S        -20.8210    18.1480    11.6930 H        59  POP53       0.0265
  7091 C27        -20.2880    20.0750    11.2500 C.3      59  POP53      -0.0496
  7092 H7R        -19.6290    20.4930    12.0400 H        59  POP53       0.0268
  7093 H7S        -21.0220    20.9260    10.9270 H        59  POP53       0.0268
  7094 C28        -19.4780    19.6300     9.9770 C.3      59  POP53      -0.0348
  7095 H8R        -20.1800    18.9990     9.3930 H        59  POP53       0.0307
  7096 H8S        -18.7350    18.8950    10.2740 H        59  POP53       0.0307
  7097 C29        -18.9180    20.7680     9.1740 C.2      59  POP53      -0.0879
  7098 H91        -19.5800    21.5820     8.8710 H        59  POP53       0.0569
  7099 C210       -17.6800    20.8140     8.6340 C.2      59  POP53      -0.0879
  7100 H101       -17.3790    21.6380     7.9990 H        59  POP53       0.0569
  7101 C211       -16.5860    19.8070     8.7830 C.3      59  POP53      -0.0348
  7102 H11R       -16.5980    19.2640     9.7480 H        59  POP53       0.0307
  7103 H11S       -15.6550    20.3590     8.8970 H        59  POP53       0.0307
  7104 C212       -16.5420    18.8910     7.5750 C.3      59  POP53      -0.0496
  7105 H12R       -15.7210    18.0900     7.5420 H        59  POP53       0.0268
  7106 H12S       -16.2850    19.5390     6.7680 H        59  POP53       0.0268
  7107 C213       -17.8470    18.0420     7.3380 C.3      59  POP53      -0.0528
  7108 H13R       -18.6230    18.8480     7.4340 H        59  POP53       0.0265
  7109 H13S       -18.0320    17.2790     8.0940 H        59  POP53       0.0265
  7110 C214       -17.7350    17.4850     5.9520 C.3      59  POP53      -0.0530
  7111 H14R       -17.2620    18.2500     5.2000 H        59  POP53       0.0265
  7112 H14S       -18.8030    17.4110     5.5740 H        59  POP53       0.0265
  7113 C215       -16.9490    16.1660     5.8800 C.3      59  POP53      -0.0531
  7114 H15R       -17.4910    15.4970     6.6060 H        59  POP53       0.0265
  7115 H15S       -15.8700    16.1960     6.2290 H        59  POP53       0.0265
  7116 C216       -17.0720    15.5030     4.5520 C.3      59  POP53      -0.0533
  7117 H16R       -16.5890    16.2290     3.7990 H        59  POP53       0.0265
  7118 H16S       -18.1510    15.3360     4.2840 H        59  POP53       0.0265
  7119 C217       -16.3690    14.1570     4.4420 C.3      59  POP53      -0.0559
  7120 H17R       -15.3520    14.2220     4.9190 H        59  POP53       0.0263
  7121 H17S       -16.2930    13.9520     3.3370 H        59  POP53       0.0263
  7122 C218       -17.2130    12.9740     5.0720 C.3      59  POP53      -0.0653
  7123 H18R       -16.5030    12.0870     5.2700 H        59  POP53       0.0230
  7124 H18S       -17.9210    12.6600     4.3770 H        59  POP53       0.0230
  7125 H18T       -17.5970    13.2680     6.0260 H        59  POP53       0.0230
  7126 C33        -22.5280    24.1160     9.9990 C.3      59  POP53      -0.0441
  7127 H3X        -23.1560    25.1180     9.8810 H        59  POP53       0.0270
  7128 H3Y        -23.1340    23.5610    10.7220 H        59  POP53       0.0270
  7129 C34        -22.6080    23.1980     8.7320 C.3      59  POP53      -0.0526
  7130 H4X        -22.3960    22.1630     9.0910 H        59  POP53       0.0265
  7131 H4Y        -21.7880    23.2690     8.0020 H        59  POP53       0.0265
  7132 C35        -23.9740    23.3040     8.0670 C.3      59  POP53      -0.0530
  7133 H5X        -24.2840    24.4470     8.2320 H        59  POP53       0.0265
  7134 H5Y        -24.5890    22.5500     8.5080 H        59  POP53       0.0265
  7135 C36        -23.8870    23.0390     6.5210 C.3      59  POP53      -0.0531
  7136 H6X        -23.5590    22.0770     6.1620 H        59  POP53       0.0265
  7137 H6Y        -23.1360    23.7450     6.0490 H        59  POP53       0.0265
  7138 C37        -25.2390    23.4160     5.7850 C.3      59  POP53      -0.0531
  7139 H7X        -25.6570    24.3270     6.1000 H        59  POP53       0.0265
  7140 H7Y        -25.9020    22.6270     6.1630 H        59  POP53       0.0265
  7141 C38        -25.2080    23.2410     4.2450 C.3      59  POP53      -0.0531
  7142 H8X        -24.5530    22.3960     4.0180 H        59  POP53       0.0265
  7143 H8Y        -24.7000    24.1280     3.7580 H        59  POP53       0.0265
  7144 C39        -26.6560    22.9610     3.7910 C.3      59  POP53      -0.0531
  7145 H9X        -27.3170    22.4340     4.5610 H        59  POP53       0.0265
  7146 H9Y        -26.4830    22.4300     2.8360 H        59  POP53       0.0265
  7147 C310       -27.2780    24.3130     3.4940 C.3      59  POP53      -0.0531
  7148 H10X       -26.4950    24.9050     2.8670 H        59  POP53       0.0265
  7149 H10Y       -27.5440    24.8030     4.3940 H        59  POP53       0.0265
  7150 C311       -28.5620    24.2440     2.6380 C.3      59  POP53      -0.0531
  7151 H11X       -29.3250    23.6090     2.9900 H        59  POP53       0.0265
  7152 H11Y       -28.2990    23.8610     1.6360 H        59  POP53       0.0265
  7153 C312       -29.2100    25.6000     2.5030 C.3      59  POP53      -0.0531
  7154 H12X       -28.6900    26.2440     1.7770 H        59  POP53       0.0265
  7155 H12Y       -29.0360    26.1430     3.4340 H        59  POP53       0.0265
  7156 C313       -30.7170    25.4910     2.2680 C.3      59  POP53      -0.0531
  7157 H13X       -31.0740    24.9810     3.2220 H        59  POP53       0.0265
  7158 H13Y       -30.8520    24.8070     1.4670 H        59  POP53       0.0265
  7159 C314       -31.4130    26.7670     1.9550 C.3      59  POP53      -0.0533
  7160 H14X       -31.1220    27.2330     0.9920 H        59  POP53       0.0265
  7161 H14Y       -31.1940    27.5960     2.7440 H        59  POP53       0.0265
  7162 C315       -32.9620    26.4290     1.7990 C.3      59  POP53      -0.0559
  7163 H15X       -33.3030    26.0530     2.7910 H        59  POP53       0.0263
  7164 H15Y       -33.1050    25.7020     1.0110 H        59  POP53       0.0263
  7165 C316       -33.7570    27.7230     1.4360 C.3      59  POP53      -0.0653
  7166 H16X       -33.6030    27.8690     0.3760 H        59  POP53       0.0230
  7167 H16Y       -33.4790    28.5670     2.0550 H        59  POP53       0.0230
  7168 H16Z       -34.8890    27.6000     1.5050 H        59  POP53       0.0230
  7169 N          -31.2640    28.2210    21.6580 N.3      60  POP54       0.2385
  7170 C12        -30.6070    29.3750    20.9210 C.3      60  POP54      -0.0064
  7171 H12A       -31.1230    30.3560    21.1400 H        60  POP54       0.0838
  7172 H12B       -30.7940    29.4010    19.8070 H        60  POP54       0.0838
  7173 C13        -32.7940    28.3700    21.7170 C.3      60  POP54      -0.0417
  7174 H13A       -33.2930    27.4460    22.0360 H        60  POP54       0.0778
  7175 H13B       -32.9970    29.1920    22.4440 H        60  POP54       0.0778
  7176 H13C       -33.0950    28.7450    20.7340 H        60  POP54       0.0778
  7177 C14        -30.9760    26.9350    21.0160 C.3      60  POP54      -0.0417
  7178 H14A       -29.9330    26.6970    20.9180 H        60  POP54       0.0778
  7179 H14B       -31.4880    26.1640    21.5870 H        60  POP54       0.0778
  7180 H14C       -31.4160    26.7880    20.0240 H        60  POP54       0.0778
  7181 C15        -30.8720    28.1270    23.1340 C.3      60  POP54      -0.0417
  7182 H15A       -31.4230    27.2750    23.5200 H        60  POP54       0.0778
  7183 H15B       -31.0210    28.9960    23.7700 H        60  POP54       0.0778
  7184 H15C       -29.8240    27.9100    23.1340 H        60  POP54       0.0778
  7185 C11        -29.1510    29.7890    21.1690 C.3      60  POP54       0.0954
  7186 H11A       -29.1330    30.1130    22.2020 H        60  POP54       0.0618
  7187 H11B       -28.7560    30.6430    20.5690 H        60  POP54       0.0618
  7188 P          -27.5170    28.4250    19.6910 P.3      60  POP54       0.2645
  7189 O13        -27.6210    26.9700    19.5320 O.co2    60  POP54      -0.5105
  7190 O14        -26.1630    29.0720    19.6610 O.co2    60  POP54      -0.5105
  7191 O12        -28.1030    28.7650    21.0620 O.3      60  POP54      -0.3154
  7192 O11        -28.4800    29.1130    18.6390 O.3      60  POP54      -0.3181
  7193 C1         -28.1460    30.3420    17.9680 C.3      60  POP54       0.0845
  7194 HA         -27.0890    30.6910    18.1480 H        60  POP54       0.0591
  7195 HB         -28.7310    31.1650    18.2760 H        60  POP54       0.0591
  7196 C2         -28.2330    30.2160    16.4560 C.3      60  POP54       0.1155
  7197 HS         -28.2040    31.2220    16.0270 H        60  POP54       0.0649
  7198 O21        -29.4770    29.5170    16.0460 O.3      60  POP54      -0.3072
  7199 C21        -30.3780    30.3230    15.5120 C.2      60  POP54       0.2626
  7200 O22        -30.5290    31.4990    15.7280 O.2      60  POP54      -0.2650
  7201 C22        -31.4450    29.4950    14.7570 C.3      60  POP54       0.0332
  7202 H2R        -32.2770    30.1000    14.8610 H        60  POP54       0.0366
  7203 H2S        -31.6450    28.6200    15.4390 H        60  POP54       0.0366
  7204 C3         -26.9530    29.7000    15.8060 C.3      60  POP54       0.0860
  7205 HX         -26.5950    28.7830    16.2750 H        60  POP54       0.0593
  7206 HY         -26.1070    30.3750    16.0710 H        60  POP54       0.0593
  7207 O31        -27.1370    29.6000    14.3450 O.3      60  POP54      -0.3125
  7208 C31        -26.6610    28.4410    13.8630 C.2      60  POP54       0.2622
  7209 O32        -26.2540    27.5000    14.5560 O.2      60  POP54      -0.2650
  7210 C32        -26.6370    28.6250    12.3430 C.3      60  POP54       0.0332
  7211 H2X        -26.0370    29.4920    12.1570 H        60  POP54       0.0366
  7212 H2Y        -27.6840    28.8750    12.0370 H        60  POP54       0.0366
  7213 C23        -30.9720    28.9120    13.4040 C.3      60  POP54      -0.0441
  7214 H3R        -31.8530    28.3070    12.9220 H        60  POP54       0.0270
  7215 H3S        -30.2360    28.1560    13.6290 H        60  POP54       0.0270
  7216 C24        -30.6460    30.0380    12.3970 C.3      60  POP54      -0.0526
  7217 H4R        -29.6960    30.5360    12.7520 H        60  POP54       0.0265
  7218 H4S        -31.5490    30.7510    12.3390 H        60  POP54       0.0265
  7219 C25        -30.4950    29.4800    11.0030 C.3      60  POP54      -0.0530
  7220 H5R        -29.6470    28.8080    10.8820 H        60  POP54       0.0265
  7221 H5S        -30.2940    30.3230    10.3180 H        60  POP54       0.0265
  7222 C26        -31.7020    28.7090    10.5120 C.3      60  POP54      -0.0528
  7223 H6R        -32.5680    29.3320    10.8040 H        60  POP54       0.0265
  7224 H6S        -31.9140    27.7100    10.9940 H        60  POP54       0.0265
  7225 C27        -31.6360    28.3970     8.9470 C.3      60  POP54      -0.0496
  7226 H7R        -30.6550    27.8630     8.6990 H        60  POP54       0.0268
  7227 H7S        -31.6090    29.3720     8.3450 H        60  POP54       0.0268
  7228 C28        -32.7540    27.4320     8.4910 C.3      60  POP54      -0.0348
  7229 H8R        -33.6940    27.8750     8.6700 H        60  POP54       0.0307
  7230 H8S        -32.6030    26.5560     9.2030 H        60  POP54       0.0307
  7231 C29        -32.7580    27.0220     7.0230 C.2      60  POP54      -0.0879
  7232 H91        -33.2810    27.6800     6.3650 H        60  POP54       0.0569
  7233 C210       -31.9630    26.0250     6.5170 C.2      60  POP54      -0.0879
  7234 H101       -32.1400    25.7580     5.4980 H        60  POP54       0.0569
  7235 C211       -31.2440    25.0460     7.3700 C.3      60  POP54      -0.0348
  7236 H11R       -31.9800    24.5220     7.9020 H        60  POP54       0.0307
  7237 H11S       -30.6770    25.5570     8.2380 H        60  POP54       0.0307
  7238 C212       -30.2680    24.2340     6.5700 C.3      60  POP54      -0.0496
  7239 H12R       -29.4080    24.7570     6.0620 H        60  POP54       0.0268
  7240 H12S       -30.7160    23.5870     5.8730 H        60  POP54       0.0268
  7241 C213       -29.4590    23.2770     7.4070 C.3      60  POP54      -0.0528
  7242 H13R       -28.9340    22.5350     6.7650 H        60  POP54       0.0265
  7243 H13S       -30.1070    22.6740     8.1330 H        60  POP54       0.0265
  7244 C214       -28.3850    24.0370     8.2400 C.3      60  POP54      -0.0530
  7245 H14R       -28.7200    24.7720     8.8930 H        60  POP54       0.0265
  7246 H14S       -27.6270    24.4560     7.5110 H        60  POP54       0.0265
  7247 C215       -27.7370    23.0350     9.1980 C.3      60  POP54      -0.0531
  7248 H15R       -27.1190    22.3590     8.6000 H        60  POP54       0.0265
  7249 H15S       -28.5480    22.4750     9.6540 H        60  POP54       0.0265
  7250 C216       -26.8640    23.6700    10.3590 C.3      60  POP54      -0.0533
  7251 H16R       -27.4530    24.4730    10.8400 H        60  POP54       0.0265
  7252 H16S       -26.0000    24.0680     9.9200 H        60  POP54       0.0265
  7253 C217       -26.4170    22.5840    11.4040 C.3      60  POP54      -0.0559
  7254 H17R       -25.5270    23.0100    11.9190 H        60  POP54       0.0263
  7255 H17S       -25.9360    21.6540    10.8800 H        60  POP54       0.0263
  7256 C218       -27.4810    22.0120    12.3480 C.3      60  POP54      -0.0653
  7257 H18R       -28.4170    21.5070    11.8720 H        60  POP54       0.0230
  7258 H18S       -27.8570    22.9820    12.8320 H        60  POP54       0.0230
  7259 H18T       -27.0350    21.4480    13.1710 H        60  POP54       0.0230
  7260 C33        -26.0730    27.4060    11.6190 C.3      60  POP54      -0.0441
  7261 H3X        -26.7480    26.5890    11.7610 H        60  POP54       0.0270
  7262 H3Y        -25.0140    27.0360    11.9450 H        60  POP54       0.0270
  7263 C34        -25.7980    27.7540    10.1310 C.3      60  POP54      -0.0526
  7264 H4X        -25.1930    26.9030     9.7700 H        60  POP54       0.0265
  7265 H4Y        -25.1550    28.6450    10.2050 H        60  POP54       0.0265
  7266 C35        -27.0800    27.8940     9.2710 C.3      60  POP54      -0.0530
  7267 H5X        -27.6280    28.8160     9.5150 H        60  POP54       0.0265
  7268 H5Y        -27.6880    26.9920     9.5080 H        60  POP54       0.0265
  7269 C36        -26.8210    27.7780     7.7410 C.3      60  POP54      -0.0531
  7270 H6X        -26.5810    26.7290     7.5310 H        60  POP54       0.0265
  7271 H6Y        -25.8510    28.2720     7.4790 H        60  POP54       0.0265
  7272 C37        -27.9000    28.4780     6.9060 C.3      60  POP54      -0.0531
  7273 H7X        -28.1090    29.5290     7.2400 H        60  POP54       0.0265
  7274 H7Y        -28.8380    27.8720     7.0930 H        60  POP54       0.0265
  7275 C38        -27.6390    28.3970     5.3150 C.3      60  POP54      -0.0531
  7276 H8X        -27.6200    27.3490     5.1300 H        60  POP54       0.0265
  7277 H8Y        -26.7050    28.7570     5.0260 H        60  POP54       0.0265
  7278 C39        -28.8290    28.8920     4.4330 C.3      60  POP54      -0.0531
  7279 H9X        -29.7310    28.2410     4.4610 H        60  POP54       0.0265
  7280 H9Y        -28.4660    28.6270     3.4080 H        60  POP54       0.0265
  7281 C310       -29.2700    30.3540     4.5460 C.3      60  POP54      -0.0531
  7282 H10X       -28.4120    31.0770     4.5830 H        60  POP54       0.0265
  7283 H10Y       -29.8070    30.3120     5.5680 H        60  POP54       0.0265
  7284 C311       -30.1220    30.6540     3.3750 C.3      60  POP54      -0.0531
  7285 H11X       -31.0170    31.2030     3.7480 H        60  POP54       0.0265
  7286 H11Y       -30.6220    29.7420     3.0700 H        60  POP54       0.0265
  7287 C312       -29.5370    31.2990     2.1830 C.3      60  POP54      -0.0531
  7288 H12X       -29.0830    30.5170     1.5020 H        60  POP54       0.0265
  7289 H12Y       -28.7430    32.0300     2.4710 H        60  POP54       0.0265
  7290 C313       -30.5300    32.0520     1.3710 C.3      60  POP54      -0.0531
  7291 H13X       -31.2100    32.6470     2.0370 H        60  POP54       0.0265
  7292 H13Y       -31.2250    31.3290     0.8570 H        60  POP54       0.0265
  7293 C314       -29.8220    32.8160     0.2370 C.3      60  POP54      -0.0533
  7294 H14X       -28.8320    33.1640     0.5450 H        60  POP54       0.0265
  7295 H14Y       -30.4370    33.7880     0.1840 H        60  POP54       0.0265
  7296 C315       -29.7450    32.1430    -1.0490 C.3      60  POP54      -0.0559
  7297 H15X       -30.7260    31.6990    -1.2570 H        60  POP54       0.0263
  7298 H15Y       -29.1700    31.2430    -1.0450 H        60  POP54       0.0263
  7299 C316       -29.2270    33.1060    -2.1990 C.3      60  POP54      -0.0653
  7300 H16X       -29.9300    33.9700    -2.1460 H        60  POP54       0.0230
  7301 H16Y       -29.2990    32.6040    -3.1720 H        60  POP54       0.0230
  7302 H16Z       -28.2150    33.4270    -1.9730 H        60  POP54       0.0230
  7303 N           29.6890    21.4470    20.8680 N.3      61  POP55       0.2385
  7304 C12         31.1730    21.4390    20.9210 C.3      61  POP55      -0.0064
  7305 H12A        31.5580    20.3950    20.9780 H        61  POP55       0.0838
  7306 H12B        31.5860    21.9740    21.7910 H        61  POP55       0.0838
  7307 C13         29.1460    20.1160    21.2880 C.3      61  POP55      -0.0417
  7308 H13A        29.1440    19.3830    20.5220 H        61  POP55       0.0778
  7309 H13B        29.5600    19.5970    22.1310 H        61  POP55       0.0778
  7310 H13C        28.0440    20.0790    21.5080 H        61  POP55       0.0778
  7311 C14         29.1280    22.3750    21.9010 C.3      61  POP55      -0.0417
  7312 H14A        29.3040    23.4130    21.6880 H        61  POP55       0.0778
  7313 H14B        28.0520    22.2680    22.0290 H        61  POP55       0.0778
  7314 H14C        29.5940    22.0770    22.8350 H        61  POP55       0.0778
  7315 C15         29.1030    21.8190    19.4830 C.3      61  POP55      -0.0417
  7316 H15A        28.0300    21.9090    19.6410 H        61  POP55       0.0778
  7317 H15B        29.3530    20.9450    18.8510 H        61  POP55       0.0778
  7318 H15C        29.5550    22.6840    19.1330 H        61  POP55       0.0778
  7319 C11         31.8370    22.1530    19.6860 C.3      61  POP55       0.0954
  7320 H11A        31.4940    21.6480    18.8090 H        61  POP55       0.0618
  7321 H11B        32.9080    21.9970    19.7970 H        61  POP55       0.0618
  7322 P           32.4290    24.7320    19.8070 P.3      61  POP55       0.2645
  7323 O13         33.5450    24.3710    20.6770 O.co2    61  POP55      -0.5105
  7324 O14         31.5130    25.8240    20.2890 O.co2    61  POP55      -0.5105
  7325 O12         31.4750    23.5430    19.4950 O.3      61  POP55      -0.3154
  7326 O11         33.0020    25.1290    18.4430 O.3      61  POP55      -0.3181
  7327 C1          33.5730    24.1650    17.4980 C.3      61  POP55       0.0845
  7328 HA          33.1430    23.1520    17.6110 H        61  POP55       0.0591
  7329 HB          34.6190    23.9870    17.6770 H        61  POP55       0.0591
  7330 C2          33.3600    24.6660    16.0270 C.3      61  POP55       0.1155
  7331 HS          34.0760    25.5380    15.8300 H        61  POP55       0.0649
  7332 O21         31.9500    25.0120    15.8720 O.3      61  POP55      -0.3072
  7333 C21         31.6970    26.0480    15.1040 C.2      61  POP55       0.2626
  7334 O22         32.5570    26.7550    14.6690 O.2      61  POP55      -0.2650
  7335 C22         30.1730    26.1220    14.8900 C.3      61  POP55       0.0332
  7336 H2R         29.8750    27.0960    15.3670 H        61  POP55       0.0366
  7337 H2S         29.6940    25.2830    15.3650 H        61  POP55       0.0366
  7338 C3          33.7800    23.5330    15.0910 C.3      61  POP55       0.0860
  7339 HX          33.1130    22.6790    15.1440 H        61  POP55       0.0593
  7340 HY          34.7540    23.0880    15.3800 H        61  POP55       0.0593
  7341 O31         33.7470    24.0550    13.7310 O.3      61  POP55      -0.3125
  7342 C31         34.8470    24.5130    13.2080 C.2      61  POP55       0.2622
  7343 O32         35.9370    24.4920    13.7140 O.2      61  POP55      -0.2650
  7344 C32         34.5990    24.9180    11.8020 C.3      61  POP55       0.0332
  7345 H2X         35.5770    25.6070    11.6600 H        61  POP55       0.0366
  7346 H2Y         33.7200    25.6100    11.7710 H        61  POP55       0.0366
  7347 C23         29.9140    26.3440    13.3610 C.3      61  POP55      -0.0441
  7348 H3R         30.5100    27.1670    13.0590 H        61  POP55       0.0270
  7349 H3S         28.9060    26.6960    13.3380 H        61  POP55       0.0270
  7350 C24         30.2010    25.1010    12.5320 C.3      61  POP55      -0.0526
  7351 H4R         31.1490    24.6160    12.9160 H        61  POP55       0.0265
  7352 H4S         30.2570    25.3200    11.4280 H        61  POP55       0.0265
  7353 C25         29.0320    24.1000    12.6290 C.3      61  POP55      -0.0530
  7354 H5R         28.2220    24.5730    12.0020 H        61  POP55       0.0265
  7355 H5S         28.6300    24.3070    13.6520 H        61  POP55       0.0265
  7356 C26         29.2800    22.5970    12.5120 C.3      61  POP55      -0.0528
  7357 H6R         29.6930    22.3280    11.5100 H        61  POP55       0.0265
  7358 H6S         28.2900    22.1150    12.5910 H        61  POP55       0.0265
  7359 C27         30.3400    21.9470    13.4580 C.3      61  POP55      -0.0496
  7360 H7R         29.8010    21.6580    14.3530 H        61  POP55       0.0268
  7361 H7S         30.9220    22.8170    13.8650 H        61  POP55       0.0268
  7362 C28         31.1920    20.9220    12.7240 C.3      61  POP55      -0.0348
  7363 H8R         31.7410    21.4360    11.9200 H        61  POP55       0.0307
  7364 H8S         30.6510    20.0800    12.2710 H        61  POP55       0.0307
  7365 C29         32.1850    20.3660    13.7580 C.2      61  POP55      -0.0879
  7366 H91         33.0220    21.0130    13.9160 H        61  POP55       0.0569
  7367 C210        32.1210    19.1820    14.3870 C.2      61  POP55      -0.0879
  7368 H101        32.8950    19.0810    15.1610 H        61  POP55       0.0569
  7369 C211        31.0190    18.1480    14.3160 C.3      61  POP55      -0.0348
  7370 H11R        30.0370    18.4470    13.7290 H        61  POP55       0.0307
  7371 H11S        30.5870    17.9250    15.3570 H        61  POP55       0.0307
  7372 C212        31.4980    16.7810    13.8040 C.3      61  POP55      -0.0496
  7373 H12R        30.5910    16.1450    14.0040 H        61  POP55       0.0268
  7374 H12S        32.2520    16.3840    14.3730 H        61  POP55       0.0268
  7375 C213        31.7390    16.8630    12.2730 C.3      61  POP55      -0.0528
  7376 H13R        32.1140    15.9460    11.9440 H        61  POP55       0.0265
  7377 H13S        32.5700    17.5800    12.0810 H        61  POP55       0.0265
  7378 C214        30.4220    17.1070    11.4590 C.3      61  POP55      -0.0530
  7379 H14R        30.1280    18.1790    11.4660 H        61  POP55       0.0265
  7380 H14S        29.6400    16.4320    11.9070 H        61  POP55       0.0265
  7381 C215        30.5630    16.5740     9.9910 C.3      61  POP55      -0.0531
  7382 H15R        29.5910    16.4650     9.4390 H        61  POP55       0.0265
  7383 H15S        30.9580    15.5930     9.8930 H        61  POP55       0.0265
  7384 C216        31.3130    17.6270     9.0870 C.3      61  POP55      -0.0533
  7385 H16R        32.3380    17.7900     9.5070 H        61  POP55       0.0265
  7386 H16S        30.8200    18.6420     9.2490 H        61  POP55       0.0265
  7387 C217        31.4960    17.2330     7.5660 C.3      61  POP55      -0.0559
  7388 H17R        31.6360    18.0500     6.8330 H        61  POP55       0.0263
  7389 H17S        30.5760    16.6090     7.3960 H        61  POP55       0.0263
  7390 C218        32.7680    16.4450     7.3410 C.3      61  POP55      -0.0653
  7391 H18R        33.6390    17.0660     7.6710 H        61  POP55       0.0230
  7392 H18S        32.9080    16.0660     6.3170 H        61  POP55       0.0230
  7393 H18T        32.7220    15.4590     7.9250 H        61  POP55       0.0230
  7394 C33         34.6050    23.7080    10.9030 C.3      61  POP55      -0.0441
  7395 H3X         34.9550    22.6930    11.3350 H        61  POP55       0.0270
  7396 H3Y         35.2810    23.8790    10.0680 H        61  POP55       0.0270
  7397 C34         33.2740    23.5480    10.3160 C.3      61  POP55      -0.0526
  7398 H4X         33.1240    24.4960     9.7650 H        61  POP55       0.0265
  7399 H4Y         32.5640    23.5020    11.1530 H        61  POP55       0.0265
  7400 C35         33.2660    22.3050     9.4800 C.3      61  POP55      -0.0530
  7401 H5X         33.7320    21.4930     9.9570 H        61  POP55       0.0265
  7402 H5Y         33.9760    22.5630     8.6740 H        61  POP55       0.0265
  7403 C36         31.9220    22.0020     8.8570 C.3      61  POP55      -0.0531
  7404 H6X         31.5200    22.9560     8.4180 H        61  POP55       0.0265
  7405 H6Y         31.2500    21.5630     9.5690 H        61  POP55       0.0265
  7406 C37         31.9530    21.0640     7.5890 C.3      61  POP55      -0.0531
  7407 H7X         30.8780    20.8540     7.3550 H        61  POP55       0.0265
  7408 H7Y         32.4350    20.0510     7.7850 H        61  POP55       0.0265
  7409 C38         32.5410    21.5560     6.2870 C.3      61  POP55      -0.0531
  7410 H8X         33.3360    22.1830     6.6550 H        61  POP55       0.0265
  7411 H8Y         31.9490    22.2780     5.6610 H        61  POP55       0.0265
  7412 C39         33.1320    20.5360     5.4180 C.3      61  POP55      -0.0531
  7413 H9X         32.3120    19.7990     5.1440 H        61  POP55       0.0265
  7414 H9Y         33.8740    19.9690     6.0690 H        61  POP55       0.0265
  7415 C310        33.7810    21.0400     4.1480 C.3      61  POP55      -0.0531
  7416 H10X        34.4520    20.2710     3.8540 H        61  POP55       0.0265
  7417 H10Y        34.3780    21.9920     4.2240 H        61  POP55       0.0265
  7418 C311        32.7530    21.2840     3.0060 C.3      61  POP55      -0.0531
  7419 H11X        32.3110    22.3770     3.0190 H        61  POP55       0.0265
  7420 H11Y        31.8880    20.6250     2.9780 H        61  POP55       0.0265
  7421 C312        33.3930    21.1450     1.6160 C.3      61  POP55      -0.0531
  7422 H12X        33.5410    19.9910     1.4320 H        61  POP55       0.0265
  7423 H12Y        34.3780    21.6050     1.5140 H        61  POP55       0.0265
  7424 C313        32.5660    21.7730     0.4650 C.3      61  POP55      -0.0531
  7425 H13X        32.3010    22.8540     0.5680 H        61  POP55       0.0265
  7426 H13Y        31.7060    21.1250     0.4000 H        61  POP55       0.0265
  7427 C314        33.1750    21.5760    -0.8800 C.3      61  POP55      -0.0533
  7428 H14X        33.4200    20.5510    -1.1190 H        61  POP55       0.0265
  7429 H14Y        34.0840    22.1910    -0.9400 H        61  POP55       0.0265
  7430 C315        32.2670    22.0620    -2.0200 C.3      61  POP55      -0.0559
  7431 H15X        31.3310    21.3980    -2.0870 H        61  POP55       0.0263
  7432 H15Y        32.7620    21.7540    -3.0090 H        61  POP55       0.0263
  7433 C316        31.7080    23.4470    -1.9020 C.3      61  POP55      -0.0653
  7434 H16X        32.4480    24.2820    -1.8290 H        61  POP55       0.0230
  7435 H16Y        30.9470    23.5660    -1.1300 H        61  POP55       0.0230
  7436 H16Z        31.1220    23.7710    -2.8320 H        61  POP55       0.0230
  7437 N           -6.2710     6.8740    28.6130 N.3      62  POP56       0.2385
  7438 C12         -5.8330     6.3360    27.2120 C.3      62  POP56      -0.0064
  7439 H12A        -5.0580     7.0210    26.9260 H        62  POP56       0.0838
  7440 H12B        -6.6780     6.3400    26.5810 H        62  POP56       0.0838
  7441 C13         -6.9410     8.1990    28.4870 C.3      62  POP56      -0.0417
  7442 H13A        -7.4480     8.3430    29.4590 H        62  POP56       0.0778
  7443 H13B        -6.1630     8.9670    28.3140 H        62  POP56       0.0778
  7444 H13C        -7.7490     8.1680    27.8130 H        62  POP56       0.0778
  7445 C14         -7.2800     5.9270    29.1860 C.3      62  POP56      -0.0417
  7446 H14A        -8.1100     5.8000    28.4670 H        62  POP56       0.0778
  7447 H14B        -6.8860     4.9350    29.3230 H        62  POP56       0.0778
  7448 H14C        -7.7450     6.2870    30.1290 H        62  POP56       0.0778
  7449 C15         -5.1150     7.0380    29.4870 C.3      62  POP56      -0.0417
  7450 H15A        -5.4710     7.2200    30.4920 H        62  POP56       0.0778
  7451 H15B        -4.4250     7.8390    29.2520 H        62  POP56       0.0778
  7452 H15C        -4.6080     6.0950    29.5620 H        62  POP56       0.0778
  7453 C11         -5.1360     4.9850    27.0800 C.3      62  POP56       0.0954
  7454 H11A        -4.9720     4.7080    26.0050 H        62  POP56       0.0618
  7455 H11B        -5.8500     4.2850    27.5240 H        62  POP56       0.0618
  7456 P           -2.6160     5.6560    27.0530 P.3      62  POP56       0.2645
  7457 O13         -1.4490     5.6100    27.9420 O.co2    62  POP56      -0.5105
  7458 O14         -2.9620     6.9470    26.4260 O.co2    62  POP56      -0.5105
  7459 O12         -3.8650     5.0800    27.8300 O.3      62  POP56      -0.3154
  7460 O11         -2.4400     4.5550    25.9360 O.3      62  POP56      -0.3181
  7461 C1          -1.9410     5.0190    24.6670 C.3      62  POP56       0.0845
  7462 HA          -1.3090     4.2550    24.1920 H        62  POP56       0.0591
  7463 HB          -1.3660     5.9240    24.7300 H        62  POP56       0.0591
  7464 C2          -3.1640     5.1880    23.6820 C.3      62  POP56       0.1155
  7465 HS          -3.7290     6.0990    23.9550 H        62  POP56       0.0649
  7466 O21         -3.9400     4.0530    23.7710 O.3      62  POP56      -0.3072
  7467 C21         -5.1850     4.1900    23.2940 C.2      62  POP56       0.2626
  7468 O22         -5.7540     5.2600    23.0530 O.2      62  POP56      -0.2650
  7469 C22         -5.7680     2.8360    23.1530 C.3      62  POP56       0.0332
  7470 H2R         -6.1090     2.4880    24.1380 H        62  POP56       0.0366
  7471 H2S         -4.9520     2.1790    22.7310 H        62  POP56       0.0366
  7472 C3          -2.9650     5.4380    22.2070 C.3      62  POP56       0.0860
  7473 HX          -2.2070     6.2240    22.0390 H        62  POP56       0.0593
  7474 HY          -3.8670     5.7830    21.7340 H        62  POP56       0.0593
  7475 O31         -2.3940     4.3440    21.5220 O.3      62  POP56      -0.3125
  7476 C31         -1.0420     4.1760    21.5790 C.2      62  POP56       0.2622
  7477 O32         -0.2810     4.9420    22.1130 O.2      62  POP56      -0.2650
  7478 C32         -0.6150     2.9230    20.7790 C.3      62  POP56       0.0332
  7479 H2X         -0.4930     2.1420    21.5260 H        62  POP56       0.0366
  7480 H2Y          0.3610     3.0590    20.3260 H        62  POP56       0.0366
  7481 C23         -6.9620     2.7410    22.1550 C.3      62  POP56      -0.0441
  7482 H3R         -7.8260     3.3750    22.5370 H        62  POP56       0.0270
  7483 H3S         -7.2230     1.6530    22.1350 H        62  POP56       0.0270
  7484 C24         -6.7930     3.2280    20.7450 C.3      62  POP56      -0.0526
  7485 H4R         -6.3980     4.2880    20.6790 H        62  POP56       0.0265
  7486 H4S         -7.7250     3.1230    20.2210 H        62  POP56       0.0265
  7487 C25         -5.8290     2.3190    19.9720 C.3      62  POP56      -0.0530
  7488 H5R         -6.0330     1.2380    20.1130 H        62  POP56       0.0265
  7489 H5S         -4.7610     2.5220    20.2990 H        62  POP56       0.0265
  7490 C26         -6.0900     2.6170    18.4740 C.3      62  POP56      -0.0528
  7491 H6R         -5.8690     3.6710    18.2280 H        62  POP56       0.0265
  7492 H6S         -7.1340     2.3370    18.2450 H        62  POP56       0.0265
  7493 C27         -5.3240     1.7040    17.5840 C.3      62  POP56      -0.0496
  7494 H7R         -5.5060     0.6890    18.0220 H        62  POP56       0.0268
  7495 H7S         -4.1520     1.8600    17.6200 H        62  POP56       0.0268
  7496 C28         -5.7390     1.5000    16.0710 C.3      62  POP56      -0.0348
  7497 H8R         -6.8290     1.3610    16.0720 H        62  POP56       0.0307
  7498 H8S         -5.3560     0.5730    15.7390 H        62  POP56       0.0307
  7499 C29         -5.2720     2.6400    15.2740 C.2      62  POP56      -0.0879
  7500 H91         -5.3410     3.6280    15.7910 H        62  POP56       0.0569
  7501 C210        -4.9570     2.5600    13.9850 C.2      62  POP56      -0.0879
  7502 H101        -4.8070     3.4590    13.4520 H        62  POP56       0.0569
  7503 C211        -4.7650     1.3720    13.0940 C.3      62  POP56      -0.0348
  7504 H11R        -5.6580     1.4340    12.3620 H        62  POP56       0.0307
  7505 H11S        -4.9070     0.4150    13.5590 H        62  POP56       0.0307
  7506 C212        -3.4870     1.3070    12.2290 C.3      62  POP56      -0.0496
  7507 H12R        -3.5350     0.2450    11.8430 H        62  POP56       0.0268
  7508 H12S        -2.5140     1.3640    12.8130 H        62  POP56       0.0268
  7509 C213        -3.4730     2.3760    11.0450 C.3      62  POP56      -0.0528
  7510 H13R        -2.4340     2.4590    10.6520 H        62  POP56       0.0265
  7511 H13S        -3.8490     3.3450    11.5000 H        62  POP56       0.0265
  7512 C214        -4.4560     2.1120     9.8890 C.3      62  POP56      -0.0530
  7513 H14R        -5.4180     2.7100    10.0700 H        62  POP56       0.0265
  7514 H14S        -4.6610     1.0400     9.7630 H        62  POP56       0.0265
  7515 C215        -3.8240     2.5360     8.4730 C.3      62  POP56      -0.0531
  7516 H15R        -2.8430     2.0140     8.4620 H        62  POP56       0.0265
  7517 H15S        -3.7420     3.6370     8.5210 H        62  POP56       0.0265
  7518 C216        -4.6960     2.1860     7.2290 C.3      62  POP56      -0.0533
  7519 H16R        -5.6190     2.8250     7.2440 H        62  POP56       0.0265
  7520 H16S        -4.8440     1.0810     7.2390 H        62  POP56       0.0265
  7521 C217        -4.0320     2.5300     5.8910 C.3      62  POP56      -0.0559
  7522 H17R        -3.0060     2.5580     6.2090 H        62  POP56       0.0263
  7523 H17S        -4.2230     3.4920     5.3870 H        62  POP56       0.0263
  7524 C218        -4.1220     1.3680     4.9040 C.3      62  POP56      -0.0653
  7525 H18R        -3.6170     1.5560     3.9720 H        62  POP56       0.0230
  7526 H18S        -5.1490     1.1720     4.6590 H        62  POP56       0.0230
  7527 H18T        -3.5690     0.5060     5.3290 H        62  POP56       0.0230
  7528 C33         -1.5160     2.7070    19.5250 C.3      62  POP56      -0.0441
  7529 H3X         -2.5610     2.8910    19.7050 H        62  POP56       0.0270
  7530 H3Y         -1.5060     1.6880    19.0680 H        62  POP56       0.0270
  7531 C34         -1.0330     3.6640    18.4300 C.3      62  POP56      -0.0526
  7532 H4X         -0.0510     3.2720    18.0830 H        62  POP56       0.0265
  7533 H4Y         -0.8540     4.7230    18.7590 H        62  POP56       0.0265
  7534 C35         -1.9910     3.7020    17.2190 C.3      62  POP56      -0.0530
  7535 H5X         -2.9720     4.1280    17.4820 H        62  POP56       0.0265
  7536 H5Y         -2.2070     2.6510    16.9460 H        62  POP56       0.0265
  7537 C36         -1.2480     4.3380    16.0320 C.3      62  POP56      -0.0531
  7538 H6X         -0.1940     3.9010    16.0410 H        62  POP56       0.0265
  7539 H6Y         -1.1810     5.4350    16.2320 H        62  POP56       0.0265
  7540 C37         -1.9130     3.9770    14.7030 C.3      62  POP56      -0.0531
  7541 H7X         -2.8980     4.5320    14.8330 H        62  POP56       0.0265
  7542 H7Y         -2.0230     2.8940    14.6470 H        62  POP56       0.0265
  7543 C38         -1.1740     4.5140    13.4670 C.3      62  POP56      -0.0531
  7544 H8X         -1.9400     4.3850    12.6800 H        62  POP56       0.0265
  7545 H8Y         -0.2880     3.8750    13.1960 H        62  POP56       0.0265
  7546 C39         -0.8320     5.9650    13.4430 C.3      62  POP56      -0.0531
  7547 H9X         -0.1430     6.2900    14.2440 H        62  POP56       0.0265
  7548 H9Y         -1.7250     6.5110    13.7240 H        62  POP56       0.0265
  7549 C310        -0.3550     6.4430    12.0690 C.3      62  POP56      -0.0531
  7550 H10X        -1.1720     6.2180    11.3480 H        62  POP56       0.0265
  7551 H10Y         0.5540     5.9960    11.7240 H        62  POP56       0.0265
  7552 C311        -0.1960     7.9400    11.8340 C.3      62  POP56      -0.0531
  7553 H11X         0.6570     8.3800    12.4390 H        62  POP56       0.0265
  7554 H11Y        -1.1340     8.4640    12.3230 H        62  POP56       0.0265
  7555 C312        -0.1210     8.2880    10.4040 C.3      62  POP56      -0.0531
  7556 H12X        -0.9180     7.8990     9.7470 H        62  POP56       0.0265
  7557 H12Y         0.8320     7.8170    10.0300 H        62  POP56       0.0265
  7558 C313         0.1300     9.7260    10.0650 C.3      62  POP56      -0.0531
  7559 H13X         1.0020    10.1690    10.5460 H        62  POP56       0.0265
  7560 H13Y        -0.7320    10.2970    10.5640 H        62  POP56       0.0265
  7561 C314         0.2170    10.0510     8.5320 C.3      62  POP56      -0.0533
  7562 H14X        -0.5830     9.4690     8.0020 H        62  POP56       0.0265
  7563 H14Y         1.2020     9.6960     8.1920 H        62  POP56       0.0265
  7564 C315        -0.0530    11.5580     8.1810 C.3      62  POP56      -0.0559
  7565 H15X         0.8460    12.1240     8.4860 H        62  POP56       0.0263
  7566 H15Y        -0.9510    12.0380     8.6160 H        62  POP56       0.0263
  7567 C316        -0.0670    11.8270     6.7080 C.3      62  POP56      -0.0653
  7568 H16X        -0.1190    12.9250     6.5000 H        62  POP56       0.0230
  7569 H16Y        -0.9710    11.2740     6.2420 H        62  POP56       0.0230
  7570 H16Z         0.8910    11.5040     6.2660 H        62  POP56       0.0230
  7571 N           22.2120    14.5650    19.9160 N.3      63  POP57       0.2385
  7572 C12         23.0400    13.5010    20.6780 C.3      63  POP57      -0.0064
  7573 H12A        23.1140    12.5840    20.1880 H        63  POP57       0.0838
  7574 H12B        22.5520    13.3730    21.6570 H        63  POP57       0.0838
  7575 C13         20.7980    13.9270    19.9430 C.3      63  POP57      -0.0417
  7576 H13A        20.7150    13.2070    19.1900 H        63  POP57       0.0778
  7577 H13B        20.4510    13.4790    20.9190 H        63  POP57       0.0778
  7578 H13C        19.9620    14.6750    19.7960 H        63  POP57       0.0778
  7579 C14         22.2940    15.8250    20.6310 C.3      63  POP57      -0.0417
  7580 H14A        21.6950    16.5180    20.0080 H        63  POP57       0.0778
  7581 H14B        21.9980    15.8460    21.6690 H        63  POP57       0.0778
  7582 H14C        23.3250    16.1930    20.6410 H        63  POP57       0.0778
  7583 C15         22.6580    14.6770    18.5250 C.3      63  POP57      -0.0417
  7584 H15A        23.7670    14.7800    18.5120 H        63  POP57       0.0778
  7585 H15B        22.1270    15.5210    18.0430 H        63  POP57       0.0778
  7586 H15C        22.4090    13.7730    17.9630 H        63  POP57       0.0778
  7587 C11         24.5230    13.8310    20.8770 C.3      63  POP57       0.0954
  7588 H11A        24.5450    14.7280    21.5460 H        63  POP57       0.0618
  7589 H11B        25.0840    14.0730    19.9490 H        63  POP57       0.0618
  7590 P           25.8680    11.6170    20.7280 P.3      63  POP57       0.2645
  7591 O13         25.6860    10.4020    21.5760 O.co2    63  POP57      -0.5105
  7592 O14         27.2470    12.0440    20.3460 O.co2    63  POP57      -0.5105
  7593 O12         25.1420    12.7950    21.5750 O.3      63  POP57      -0.3154
  7594 O11         25.0330    11.3830    19.4040 O.3      63  POP57      -0.3181
  7595 C1          25.5410    11.7670    18.1080 C.3      63  POP57       0.0845
  7596 HA          26.5680    11.9560    18.1110 H        63  POP57       0.0591
  7597 HB          25.1630    12.7420    17.7790 H        63  POP57       0.0591
  7598 C2          25.3860    10.6680    17.0150 C.3      63  POP57       0.1155
  7599 HS          25.6100    11.0160    15.9530 H        63  POP57       0.0649
  7600 O21         24.2020     9.9090    16.9400 O.3      63  POP57      -0.3072
  7601 C21         23.0070    10.4420    16.9500 C.2      63  POP57       0.2626
  7602 O22         22.7280    11.6050    17.0240 O.2      63  POP57      -0.2650
  7603 C22         21.9280     9.3520    16.6790 C.3      63  POP57       0.0332
  7604 H2R         20.8760     9.8110    16.4370 H        63  POP57       0.0366
  7605 H2S         21.7450     8.8400    17.6500 H        63  POP57       0.0366
  7606 C3          26.5270     9.6330    17.1600 C.3      63  POP57       0.0860
  7607 HX          26.4250     9.0880    18.1110 H        63  POP57       0.0593
  7608 HY          27.4430    10.2410    17.1180 H        63  POP57       0.0593
  7609 O31         26.6490     8.6440    16.0920 O.3      63  POP57      -0.3125
  7610 C31         26.1270     7.4100    16.2560 C.2      63  POP57       0.2622
  7611 O32         25.6360     6.9310    17.3010 O.2      63  POP57      -0.2650
  7612 C32         26.3940     6.6200    14.9940 C.3      63  POP57       0.0332
  7613 H2X         25.7350     6.8860    14.1030 H        63  POP57       0.0366
  7614 H2Y         26.2330     5.5220    15.2790 H        63  POP57       0.0366
  7615 C23         22.3390     8.2130    15.6930 C.3      63  POP57      -0.0441
  7616 H3R         21.5760     7.4210    15.6850 H        63  POP57       0.0270
  7617 H3S         23.3460     7.8080    15.9540 H        63  POP57       0.0270
  7618 C24         22.4180     8.7760    14.2360 C.3      63  POP57      -0.0526
  7619 H4R         23.3210     9.3810    14.1370 H        63  POP57       0.0265
  7620 H4S         21.5090     9.4120    14.1350 H        63  POP57       0.0265
  7621 C25         22.2440     7.6810    13.2240 C.3      63  POP57      -0.0530
  7622 H5R         21.1680     7.2760    13.3280 H        63  POP57       0.0265
  7623 H5S         22.9540     6.8440    13.3790 H        63  POP57       0.0265
  7624 C26         22.4700     8.2950    11.8090 C.3      63  POP57      -0.0528
  7625 H6R         23.6340     8.4370    11.7180 H        63  POP57       0.0265
  7626 H6S         22.0720     9.3180    11.7440 H        63  POP57       0.0265
  7627 C27         21.9740     7.3410    10.7080 C.3      63  POP57      -0.0496
  7628 H7R         20.8050     7.1160    10.7560 H        63  POP57       0.0268
  7629 H7S         22.4770     6.4370    10.7810 H        63  POP57       0.0268
  7630 C28         22.1930     7.9350     9.2620 C.3      63  POP57      -0.0348
  7631 H8R         21.8950     9.0250     9.2740 H        63  POP57       0.0307
  7632 H8S         21.4850     7.4290     8.5930 H        63  POP57       0.0307
  7633 C29         23.6070     7.6670     8.6140 C.2      63  POP57      -0.0879
  7634 H91         23.6820     6.7540     8.1570 H        63  POP57       0.0569
  7635 C210        24.7420     8.4320     8.7980 C.2      63  POP57      -0.0879
  7636 H101        25.6240     7.8890     8.4060 H        63  POP57       0.0569
  7637 C211        25.0620     9.7000     9.5510 C.3      63  POP57      -0.0348
  7638 H11R        24.1410    10.0490    10.0880 H        63  POP57       0.0307
  7639 H11S        25.3980    10.5370     8.8680 H        63  POP57       0.0307
  7640 C212        26.1630     9.3730    10.5680 C.3      63  POP57      -0.0496
  7641 H12R        25.7810     8.6190    11.3030 H        63  POP57       0.0268
  7642 H12S        26.3740    10.3830    11.0650 H        63  POP57       0.0268
  7643 C213        27.3720     8.8130     9.7940 C.3      63  POP57      -0.0528
  7644 H13R        27.4930     9.3290     8.8210 H        63  POP57       0.0265
  7645 H13S        27.1530     7.8090     9.5680 H        63  POP57       0.0265
  7646 C214        28.6590     8.9970    10.6190 C.3      63  POP57      -0.0530
  7647 H14R        28.4000     8.3480    11.4760 H        63  POP57       0.0265
  7648 H14S        28.8080     9.9920    11.0500 H        63  POP57       0.0265
  7649 C215        29.9260     8.3920     9.9320 C.3      63  POP57      -0.0531
  7650 H15R        29.5710     7.3680     9.7200 H        63  POP57       0.0265
  7651 H15S        30.7250     8.3960    10.7580 H        63  POP57       0.0265
  7652 C216        30.3620     9.0410     8.5430 C.3      63  POP57      -0.0533
  7653 H16R        30.4180    10.0790     8.4860 H        63  POP57       0.0265
  7654 H16S        29.5340     8.8120     7.8360 H        63  POP57       0.0265
  7655 C217        31.6590     8.4760     7.8920 C.3      63  POP57      -0.0559
  7656 H17R        31.7590     8.8910     6.9340 H        63  POP57       0.0263
  7657 H17S        31.4640     7.3810     7.7340 H        63  POP57       0.0263
  7658 C218        32.9130     8.7610     8.6570 C.3      63  POP57      -0.0653
  7659 H18R        33.6770     7.9890     8.2160 H        63  POP57       0.0230
  7660 H18S        32.8030     8.6280     9.6920 H        63  POP57       0.0230
  7661 H18T        33.3220     9.7930     8.5500 H        63  POP57       0.0230
  7662 C33         27.9180     6.7400    14.5890 C.3      63  POP57      -0.0441
  7663 H3X         28.3420     6.6620    15.5900 H        63  POP57       0.0270
  7664 H3Y         28.0160     7.7740    14.1400 H        63  POP57       0.0270
  7665 C34         28.5340     5.6290    13.7440 C.3      63  POP57      -0.0526
  7666 H4X         28.0890     5.6640    12.6920 H        63  POP57       0.0265
  7667 H4Y         28.2890     4.7050    14.2680 H        63  POP57       0.0265
  7668 C35         30.0340     5.6800    13.6800 C.3      63  POP57      -0.0530
  7669 H5X         30.5360     5.5470    14.7020 H        63  POP57       0.0265
  7670 H5Y         30.2300     6.6340    13.2440 H        63  POP57       0.0265
  7671 C36         30.6420     4.6300    12.7610 C.3      63  POP57      -0.0531
  7672 H6X         31.6450     5.0080    12.6710 H        63  POP57       0.0265
  7673 H6Y         30.2200     4.5580    11.7510 H        63  POP57       0.0265
  7674 C37         30.7770     3.1460    13.2400 C.3      63  POP57      -0.0531
  7675 H7X         30.8520     3.2300    14.3720 H        63  POP57       0.0265
  7676 H7Y         31.7460     2.7850    12.7170 H        63  POP57       0.0265
  7677 C38         29.6440     2.2110    12.8280 C.3      63  POP57      -0.0531
  7678 H8X         28.6640     2.5570    13.0950 H        63  POP57       0.0265
  7679 H8Y         29.8660     1.2520    13.3030 H        63  POP57       0.0265
  7680 C39         29.5850     1.8240    11.3090 C.3      63  POP57      -0.0531
  7681 H9X         30.4740     1.4140    10.9740 H        63  POP57       0.0265
  7682 H9Y         29.3720     2.6720    10.6480 H        63  POP57       0.0265
  7683 C310        28.5240     0.7210    10.9130 C.3      63  POP57      -0.0531
  7684 H10X        27.5780     1.0440    11.2660 H        63  POP57       0.0265
  7685 H10Y        28.8200    -0.1940    11.4830 H        63  POP57       0.0265
  7686 C311        28.4950     0.3490     9.3850 C.3      63  POP57      -0.0531
  7687 H11X        29.4910    -0.1210     9.0650 H        63  POP57       0.0265
  7688 H11Y        28.2350     1.2450     8.8390 H        63  POP57       0.0265
  7689 C312        27.4370    -0.6990     9.1090 C.3      63  POP57      -0.0531
  7690 H12X        26.4400    -0.1250     9.1040 H        63  POP57       0.0265
  7691 H12Y        27.3670    -1.5130     9.8180 H        63  POP57       0.0265
  7692 C313        27.6320    -1.3820     7.6830 C.3      63  POP57      -0.0531
  7693 H13X        27.9740    -0.6660     6.8800 H        63  POP57       0.0265
  7694 H13Y        26.6510    -1.7740     7.2970 H        63  POP57       0.0265
  7695 C314        28.7110    -2.4910     7.7070 C.3      63  POP57      -0.0533
  7696 H14X        28.5130    -3.1100     8.6050 H        63  POP57       0.0265
  7697 H14Y        29.6710    -2.1230     7.8890 H        63  POP57       0.0265
  7698 C315        28.7390    -3.5660     6.5940 C.3      63  POP57      -0.0559
  7699 H15X        29.6650    -4.1300     6.9010 H        63  POP57       0.0263
  7700 H15Y        28.8660    -3.1060     5.5940 H        63  POP57       0.0263
  7701 C316        27.6140    -4.6210     6.7560 C.3      63  POP57      -0.0653
  7702 H16X        27.8840    -5.1750     7.7190 H        63  POP57       0.0230
  7703 H16Y        27.7250    -5.4040     5.9600 H        63  POP57       0.0230
  7704 H16Z        26.5800    -4.1970     6.8220 H        63  POP57       0.0230
  7705 N            5.1490     7.7590    25.4950 N.3      64  POP58       0.2385
  7706 C12          5.0800     8.5020    24.1720 C.3      64  POP58      -0.0064
  7707 H12A         5.9660     8.3520    23.6750 H        64  POP58       0.0838
  7708 H12B         5.0350     9.5120    24.4920 H        64  POP58       0.0838
  7709 C13          4.8830     6.3560    25.2740 C.3      64  POP58      -0.0417
  7710 H13A         5.0390     5.7480    26.2000 H        64  POP58       0.0778
  7711 H13B         3.8770     6.1160    24.9580 H        64  POP58       0.0778
  7712 H13C         5.5780     5.9540    24.4900 H        64  POP58       0.0778
  7713 C14          6.5110     7.9830    26.0960 C.3      64  POP58      -0.0417
  7714 H14A         6.6970     7.4590    26.9980 H        64  POP58       0.0778
  7715 H14B         7.2370     7.6560    25.4310 H        64  POP58       0.0778
  7716 H14C         6.6520     9.0390    26.3560 H        64  POP58       0.0778
  7717 C15          4.1490     8.3130    26.3090 C.3      64  POP58      -0.0417
  7718 H15A         4.0630     7.7360    27.2140 H        64  POP58       0.0778
  7719 H15B         3.2220     8.1640    25.7510 H        64  POP58       0.0778
  7720 H15C         4.2180     9.3300    26.5870 H        64  POP58       0.0778
  7721 C11          3.9580     8.2380    23.1160 C.3      64  POP58       0.0954
  7722 H11A         4.0120     7.1460    22.9900 H        64  POP58       0.0618
  7723 H11B         4.2920     8.5750    22.1000 H        64  POP58       0.0618
  7724 P            2.1660    10.1490    23.5440 P.3      64  POP58       0.2645
  7725 O13          3.3110    11.0210    24.0100 O.co2    64  POP58      -0.5105
  7726 O14          0.9760    10.1760    24.4240 O.co2    64  POP58      -0.5105
  7727 O12          2.6640     8.6560    23.5500 O.3      64  POP58      -0.3154
  7728 O11          1.8100    10.4950    22.0340 O.3      64  POP58      -0.3181
  7729 C1           0.8150     9.7120    21.3310 C.3      64  POP58       0.0845
  7730 HA           0.4170    10.3090    20.4720 H        64  POP58       0.0591
  7731 HB           0.0820     9.3020    22.0100 H        64  POP58       0.0591
  7732 C2           1.3380     8.4300    20.6850 C.3      64  POP58       0.1155
  7733 HS           1.4820     7.8000    21.5660 H        64  POP58       0.0649
  7734 O21          2.5150     8.7130    19.9090 O.3      64  POP58      -0.3072
  7735 C21          3.2620     7.5840    19.6920 C.2      64  POP58       0.2626
  7736 O22          2.9430     6.5650    20.3130 O.2      64  POP58      -0.2650
  7737 C22          4.5110     7.7710    19.0490 C.3      64  POP58       0.0332
  7738 H2R          4.7090     8.9180    18.9440 H        64  POP58       0.0366
  7739 H2S          4.3780     7.3000    18.0140 H        64  POP58       0.0366
  7740 C3           0.1610     7.7640    19.7930 C.3      64  POP58       0.0860
  7741 HX          -0.7250     7.9330    20.3920 H        64  POP58       0.0593
  7742 HY           0.2680     6.7380    19.6850 H        64  POP58       0.0593
  7743 O31         -0.0040     8.5500    18.6200 O.3      64  POP58      -0.3125
  7744 C31          0.6470     8.0520    17.4960 C.2      64  POP58       0.2622
  7745 O32          1.2520     7.0460    17.4660 O.2      64  POP58      -0.2650
  7746 C32          0.5120     8.8680    16.2990 C.3      64  POP58       0.0332
  7747 H2X          0.3040     9.8950    16.7400 H        64  POP58       0.0366
  7748 H2Y         -0.3680     8.5010    15.6690 H        64  POP58       0.0366
  7749 C23          5.7780     7.0600    19.5010 C.3      64  POP58      -0.0441
  7750 H3R          5.7620     6.0180    19.5100 H        64  POP58       0.0270
  7751 H3S          5.8360     7.3000    20.6490 H        64  POP58       0.0270
  7752 C24          7.0300     7.5720    18.7490 C.3      64  POP58      -0.0526
  7753 H4R          7.8590     7.1220    19.4220 H        64  POP58       0.0265
  7754 H4S          7.0940     8.7010    18.8040 H        64  POP58       0.0265
  7755 C25          7.1660     7.0750    17.3220 C.3      64  POP58      -0.0530
  7756 H5R          6.3570     7.4820    16.6290 H        64  POP58       0.0265
  7757 H5S          6.9270     6.0050    17.1830 H        64  POP58       0.0265
  7758 C26          8.5800     7.1290    16.7690 C.3      64  POP58      -0.0528
  7759 H6R          9.1610     6.5000    17.3840 H        64  POP58       0.0265
  7760 H6S          9.0390     8.0920    16.8280 H        64  POP58       0.0265
  7761 C27          8.6660     6.6360    15.2860 C.3      64  POP58      -0.0496
  7762 H7R          8.2120     5.5740    15.2550 H        64  POP58       0.0268
  7763 H7S          9.7760     6.6740    15.0600 H        64  POP58       0.0268
  7764 C28          7.8960     7.4610    14.3100 C.3      64  POP58      -0.0348
  7765 H8R          6.8260     7.4390    14.5430 H        64  POP58       0.0307
  7766 H8S          7.8850     6.8800    13.3510 H        64  POP58       0.0307
  7767 C29          8.4960     8.8550    14.1680 C.2      64  POP58      -0.0879
  7768 H91          7.9630     9.5750    14.7460 H        64  POP58       0.0569
  7769 C210         9.4600     9.1550    13.3140 C.2      64  POP58      -0.0879
  7770 H101         9.7600    10.2110    13.3100 H        64  POP58       0.0569
  7771 C211        10.2030     8.3000    12.2550 C.3      64  POP58      -0.0348
  7772 H11R         9.9610     7.1780    12.2100 H        64  POP58       0.0307
  7773 H11S        11.3220     8.4570    12.3250 H        64  POP58       0.0307
  7774 C212         9.9050     8.9080    10.8950 C.3      64  POP58      -0.0496
  7775 H12R         8.8020     8.6680    10.6500 H        64  POP58       0.0268
  7776 H12S        10.4230     8.3980    10.0830 H        64  POP58       0.0268
  7777 C213        10.1390    10.3820    10.6640 C.3      64  POP58      -0.0528
  7778 H13R        11.0900    10.6600    11.0550 H        64  POP58       0.0265
  7779 H13S         9.3680    10.9750    11.1690 H        64  POP58       0.0265
  7780 C214        10.0420    10.6760     9.1550 C.3      64  POP58      -0.0530
  7781 H14R         9.5820    11.7040     8.9760 H        64  POP58       0.0265
  7782 H14S         9.3450     9.9460     8.6700 H        64  POP58       0.0265
  7783 C215        11.4000    10.7270     8.4920 C.3      64  POP58      -0.0531
  7784 H15R        11.8550     9.7840     8.5190 H        64  POP58       0.0265
  7785 H15S        12.0430    11.4760     9.0650 H        64  POP58       0.0265
  7786 C216        11.4080    11.3500     7.1210 C.3      64  POP58      -0.0533
  7787 H16R        12.4270    11.6260     6.7990 H        64  POP58       0.0265
  7788 H16S        10.8490    12.2880     7.3010 H        64  POP58       0.0265
  7789 C217        10.7580    10.4560     5.9890 C.3      64  POP58      -0.0559
  7790 H17R        10.8110     9.4150     6.3530 H        64  POP58       0.0263
  7791 H17S        11.2860    10.5270     5.0670 H        64  POP58       0.0263
  7792 C218         9.2900    10.8520     5.7120 C.3      64  POP58      -0.0653
  7793 H18R         8.6320    10.6030     6.6350 H        64  POP58       0.0230
  7794 H18S         8.8520    10.2700     4.8560 H        64  POP58       0.0230
  7795 H18T         9.1200    11.9230     5.5770 H        64  POP58       0.0230
  7796 C33          1.7210     8.7940    15.3390 C.3      64  POP58      -0.0441
  7797 H3X          1.3990     9.0710    14.3750 H        64  POP58       0.0270
  7798 H3Y          2.0300     7.6650    15.3150 H        64  POP58       0.0270
  7799 C34          2.8280     9.7740    15.7590 C.3      64  POP58      -0.0526
  7800 H4X          2.9670     9.5550    16.9030 H        64  POP58       0.0265
  7801 H4Y          2.5270    10.8720    15.7930 H        64  POP58       0.0265
  7802 C35          4.1020     9.6290    14.9860 C.3      64  POP58      -0.0530
  7803 H5X          4.6260     8.6640    15.1330 H        64  POP58       0.0265
  7804 H5Y          4.7270    10.2960    15.5910 H        64  POP58       0.0265
  7805 C36          4.0920     9.9810    13.4290 C.3      64  POP58      -0.0531
  7806 H6X          3.2350    10.7030    13.2190 H        64  POP58       0.0265
  7807 H6Y          3.9370     9.0030    12.9310 H        64  POP58       0.0265
  7808 C37          5.3030    10.7210    12.9890 C.3      64  POP58      -0.0531
  7809 H7X          6.2000    10.2680    13.3310 H        64  POP58       0.0265
  7810 H7Y          5.2030    11.7220    13.3120 H        64  POP58       0.0265
  7811 C38          5.4930    10.7960    11.4630 C.3      64  POP58      -0.0531
  7812 H8X          4.4950    10.8310    11.0320 H        64  POP58       0.0265
  7813 H8Y          5.9130     9.8130    11.1020 H        64  POP58       0.0265
  7814 C39          6.2940    11.9550    10.9720 C.3      64  POP58      -0.0531
  7815 H9X          7.3540    11.8310    11.3810 H        64  POP58       0.0265
  7816 H9Y          5.7870    12.8240    11.5010 H        64  POP58       0.0265
  7817 C310         6.4040    12.1310     9.4890 C.3      64  POP58      -0.0531
  7818 H10X         5.3300    11.9980     9.0810 H        64  POP58       0.0265
  7819 H10Y         7.1610    11.3840     9.1570 H        64  POP58       0.0265
  7820 C311         7.0390    13.4560     9.0270 C.3      64  POP58      -0.0531
  7821 H11X         8.0700    13.6710     9.4460 H        64  POP58       0.0265
  7822 H11Y         6.3140    14.2600     9.3400 H        64  POP58       0.0265
  7823 C312         7.0530    13.6010     7.5090 C.3      64  POP58      -0.0531
  7824 H12X         6.0070    13.6220     7.0150 H        64  POP58       0.0265
  7825 H12Y         7.6090    12.7680     7.1660 H        64  POP58       0.0265
  7826 C313         7.7820    14.8720     7.1350 C.3      64  POP58      -0.0531
  7827 H13X         8.7720    14.8870     7.5640 H        64  POP58       0.0265
  7828 H13Y         7.1850    15.8050     7.4860 H        64  POP58       0.0265
  7829 C314         7.8840    15.1770     5.6200 C.3      64  POP58      -0.0533
  7830 H14X         6.9020    15.0100     5.1410 H        64  POP58       0.0265
  7831 H14Y         8.6400    14.6340     4.9990 H        64  POP58       0.0265
  7832 C315         8.3620    16.6320     5.3330 C.3      64  POP58      -0.0559
  7833 H15X         9.4520    16.7000     5.6790 H        64  POP58       0.0263
  7834 H15Y         7.7890    17.3900     5.9170 H        64  POP58       0.0263
  7835 C316         8.2670    16.8960     3.8650 C.3      64  POP58      -0.0653
  7836 H16X         8.7410    16.0170     3.2880 H        64  POP58       0.0230
  7837 H16Y         8.9530    17.7830     3.7750 H        64  POP58       0.0230
  7838 H16Z         7.2550    17.1740     3.5110 H        64  POP58       0.0230
  7839 N          -28.0920   -24.5550    21.5590 N.3      65  POP59       0.2385
  7840 C12        -28.3480   -24.2680    20.0460 C.3      65  POP59      -0.0064
  7841 H12A       -28.8780   -23.3200    20.0800 H        65  POP59       0.0838
  7842 H12B       -29.0810   -25.0110    19.6640 H        65  POP59       0.0838
  7843 C13        -29.3980   -24.6130    22.3770 C.3      65  POP59      -0.0417
  7844 H13A       -29.2320   -24.5000    23.4380 H        65  POP59       0.0778
  7845 H13B       -30.0210   -23.7370    22.0880 H        65  POP59       0.0778
  7846 H13C       -29.9430   -25.5670    22.0860 H        65  POP59       0.0778
  7847 C14        -27.3640   -25.7980    21.8270 C.3      65  POP59      -0.0417
  7848 H14A       -26.3680   -25.8510    21.4110 H        65  POP59       0.0778
  7849 H14B       -27.2340   -26.0340    22.8490 H        65  POP59       0.0778
  7850 H14C       -27.9010   -26.6530    21.4380 H        65  POP59       0.0778
  7851 C15        -27.3860   -23.3870    22.1820 C.3      65  POP59      -0.0417
  7852 H15A       -26.7010   -23.7100    22.9790 H        65  POP59       0.0778
  7853 H15B       -28.1340   -22.6500    22.5860 H        65  POP59       0.0778
  7854 H15C       -26.6800   -22.8420    21.5620 H        65  POP59       0.0778
  7855 C11        -27.1060   -24.1030    19.0270 C.3      65  POP59       0.0954
  7856 H11A       -27.5770   -23.7930    18.0450 H        65  POP59       0.0618
  7857 H11B       -26.6180   -25.1050    18.9880 H        65  POP59       0.0618
  7858 P          -26.3030   -21.7050    18.9240 P.3      65  POP59       0.2645
  7859 O13        -25.0780   -20.9090    19.3190 O.co2    65  POP59      -0.5105
  7860 O14        -27.6530   -21.1460    19.3190 O.co2    65  POP59      -0.5105
  7861 O12        -26.2210   -23.1430    19.5590 O.3      65  POP59      -0.3154
  7862 O11        -26.3040   -22.0010    17.3800 O.3      65  POP59      -0.3181
  7863 C1         -25.0100   -22.5250    16.9390 C.3      65  POP59       0.0845
  7864 HA         -24.6370   -23.3350    17.6380 H        65  POP59       0.0591
  7865 HB         -24.1350   -21.7230    16.8720 H        65  POP59       0.0591
  7866 C2         -25.1610   -23.0440    15.4640 C.3      65  POP59       0.1155
  7867 HS         -24.2160   -23.5150    15.1000 H        65  POP59       0.0649
  7868 O21        -25.4690   -21.9130    14.6020 O.3      65  POP59      -0.3072
  7869 C21        -24.4380   -21.2230    14.1820 C.2      65  POP59       0.2626
  7870 O22        -23.2770   -21.4640    14.4180 O.2      65  POP59      -0.2650
  7871 C22        -24.9560   -19.9640    13.3520 C.3      65  POP59       0.0332
  7872 H2R        -25.9100   -19.6420    13.8330 H        65  POP59       0.0366
  7873 H2S        -25.0890   -20.2980    12.3320 H        65  POP59       0.0366
  7874 C3         -26.3020   -24.1050    15.3110 C.3      65  POP59       0.0860
  7875 HX         -27.1950   -23.5580    15.5270 H        65  POP59       0.0593
  7876 HY         -26.2150   -24.7780    16.1840 H        65  POP59       0.0593
  7877 O31        -26.2850   -24.7300    14.0020 O.3      65  POP59      -0.3125
  7878 C31        -27.0300   -25.7300    13.9470 C.2      65  POP59       0.2622
  7879 O32        -27.7460   -26.1470    14.8040 O.2      65  POP59      -0.2650
  7880 C32        -26.7980   -26.4210    12.6160 C.3      65  POP59       0.0332
  7881 H2X        -27.1460   -27.5100    12.6740 H        65  POP59       0.0366
  7882 H2Y        -25.7030   -26.4880    12.4630 H        65  POP59       0.0366
  7883 C23        -23.8750   -18.8440    13.3880 C.3      65  POP59      -0.0441
  7884 H3R        -23.2720   -18.8580    14.2680 H        65  POP59       0.0270
  7885 H3S        -24.4890   -17.9300    13.3110 H        65  POP59       0.0270
  7886 C24        -22.8880   -18.8210    12.1810 C.3      65  POP59      -0.0526
  7887 H4R        -22.5230   -19.8430    11.9310 H        65  POP59       0.0265
  7888 H4S        -21.8640   -18.3770    12.4760 H        65  POP59       0.0265
  7889 C25        -23.4290   -17.9430    11.0340 C.3      65  POP59      -0.0530
  7890 H5R        -23.0290   -16.8880    11.0640 H        65  POP59       0.0265
  7891 H5S        -24.5440   -17.9100    11.2060 H        65  POP59       0.0265
  7892 C26        -23.1960   -18.5500     9.6470 C.3      65  POP59      -0.0528
  7893 H6R        -22.2380   -18.6030     9.1820 H        65  POP59       0.0265
  7894 H6S        -23.6290   -17.9170     8.9030 H        65  POP59       0.0265
  7895 C27        -23.7660   -19.8960     9.4180 C.3      65  POP59      -0.0496
  7896 H7R        -24.7390   -19.9450    10.0100 H        65  POP59       0.0268
  7897 H7S        -23.2330   -20.6680     9.9570 H        65  POP59       0.0268
  7898 C28        -24.0970   -20.1830     7.9520 C.3      65  POP59      -0.0348
  7899 H8R        -24.8220   -19.4010     7.5270 H        65  POP59       0.0307
  7900 H8S        -24.5540   -21.1280     7.8670 H        65  POP59       0.0307
  7901 C29        -22.8130   -20.2230     7.1610 C.2      65  POP59      -0.0879
  7902 H91        -22.3220   -21.1790     7.2790 H        65  POP59       0.0569
  7903 C210       -22.1300   -19.3470     6.3700 C.2      65  POP59      -0.0879
  7904 H101       -21.1830   -19.6260     5.9010 H        65  POP59       0.0569
  7905 C211       -22.4860   -17.9070     6.0580 C.3      65  POP59      -0.0348
  7906 H11R       -21.7760   -17.1350     6.3620 H        65  POP59       0.0307
  7907 H11S       -23.5500   -17.6010     6.4480 H        65  POP59       0.0307
  7908 C212       -22.5970   -17.6300     4.5160 C.3      65  POP59      -0.0496
  7909 H12R       -23.1840   -16.7120     4.3140 H        65  POP59       0.0268
  7910 H12S       -23.2780   -18.5100     4.1420 H        65  POP59       0.0268
  7911 C213       -21.2040   -17.7090     3.8720 C.3      65  POP59      -0.0528
  7912 H13R       -20.4030   -17.6860     4.7210 H        65  POP59       0.0265
  7913 H13S       -21.1360   -16.7500     3.3800 H        65  POP59       0.0265
  7914 C214       -21.0180   -18.8900     2.8840 C.3      65  POP59      -0.0530
  7915 H14R       -21.8620   -18.9000     2.1510 H        65  POP59       0.0265
  7916 H14S       -21.0680   -19.8450     3.5450 H        65  POP59       0.0265
  7917 C215       -19.7340   -18.7680     1.9980 C.3      65  POP59      -0.0531
  7918 H15R       -18.8590   -18.9710     2.6200 H        65  POP59       0.0265
  7919 H15S       -19.6780   -17.8530     1.3430 H        65  POP59       0.0265
  7920 C216       -19.7420   -19.9570     1.0060 C.3      65  POP59      -0.0533
  7921 H16R       -20.6680   -20.0180     0.3380 H        65  POP59       0.0265
  7922 H16S       -19.5770   -20.8450     1.6240 H        65  POP59       0.0265
  7923 C217       -18.4620   -19.7550     0.1320 C.3      65  POP59      -0.0559
  7924 H17R       -17.6820   -19.3410     0.7570 H        65  POP59       0.0263
  7925 H17S       -18.5820   -18.9200    -0.5540 H        65  POP59       0.0263
  7926 C218       -17.9540   -20.9860    -0.6010 C.3      65  POP59      -0.0653
  7927 H18R       -17.7360   -21.6980     0.2610 H        65  POP59       0.0230
  7928 H18S       -16.9970   -20.8100    -1.1830 H        65  POP59       0.0230
  7929 H18T       -18.5770   -21.5680    -1.2860 H        65  POP59       0.0230
  7930 C33        -27.4840   -25.7130    11.5010 C.3      65  POP59      -0.0441
  7931 H3X        -27.1550   -25.9580    10.5110 H        65  POP59       0.0270
  7932 H3Y        -27.4430   -24.6400    11.6670 H        65  POP59       0.0270
  7933 C34        -28.9130   -26.1700    11.3280 C.3      65  POP59      -0.0526
  7934 H4X        -29.4870   -26.1400    12.3060 H        65  POP59       0.0265
  7935 H4Y        -28.7580   -27.2730    11.1340 H        65  POP59       0.0265
  7936 C35        -29.6940   -25.4870    10.1610 C.3      65  POP59      -0.0530
  7937 H5X        -29.6140   -24.4210    10.2830 H        65  POP59       0.0265
  7938 H5Y        -30.7580   -25.8210    10.1130 H        65  POP59       0.0265
  7939 C36        -29.0780   -25.7110     8.7280 C.3      65  POP59      -0.0531
  7940 H6X        -28.0100   -25.3360     8.7790 H        65  POP59       0.0265
  7941 H6Y        -29.6370   -24.9880     8.1280 H        65  POP59       0.0265
  7942 C37        -29.1790   -27.1030     8.2720 C.3      65  POP59      -0.0531
  7943 H7X        -30.2080   -27.3930     8.4110 H        65  POP59       0.0265
  7944 H7Y        -28.5520   -27.9180     8.7680 H        65  POP59       0.0265
  7945 C38        -28.9980   -27.3300     6.7710 C.3      65  POP59      -0.0531
  7946 H8X        -28.9590   -28.4370     6.6660 H        65  POP59       0.0265
  7947 H8Y        -28.0090   -26.9220     6.4290 H        65  POP59       0.0265
  7948 C39        -30.1020   -26.6840     5.9900 C.3      65  POP59      -0.0531
  7949 H9X        -29.9000   -25.5900     6.0550 H        65  POP59       0.0265
  7950 H9Y        -31.0560   -26.8200     6.6000 H        65  POP59       0.0265
  7951 C310       -30.2430   -27.1240     4.5540 C.3      65  POP59      -0.0531
  7952 H10X       -30.3520   -28.1930     4.4700 H        65  POP59       0.0265
  7953 H10Y       -29.2120   -26.7620     4.0820 H        65  POP59       0.0265
  7954 C311       -31.1850   -26.2100     3.7300 C.3      65  POP59      -0.0531
  7955 H11X       -30.9140   -25.0560     3.7560 H        65  POP59       0.0265
  7956 H11Y       -32.1660   -26.3240     4.3190 H        65  POP59       0.0265
  7957 C312       -31.3040   -26.7230     2.3400 C.3      65  POP59      -0.0531
  7958 H12X       -31.6230   -27.8250     2.2740 H        65  POP59       0.0265
  7959 H12Y       -30.3550   -26.7070     1.8360 H        65  POP59       0.0265
  7960 C313       -32.3390   -25.8300     1.6570 C.3      65  POP59      -0.0531
  7961 H13X       -31.9270   -24.7720     1.6970 H        65  POP59       0.0265
  7962 H13Y       -33.3520   -25.8090     2.0860 H        65  POP59       0.0265
  7963 C314       -32.4960   -26.2220     0.1850 C.3      65  POP59      -0.0533
  7964 H14X       -32.9690   -27.2460     0.0530 H        65  POP59       0.0265
  7965 H14Y       -31.4970   -26.3610    -0.2950 H        65  POP59       0.0265
  7966 C315       -33.2270   -25.2380    -0.6870 C.3      65  POP59      -0.0559
  7967 H15X       -32.8070   -24.2190    -0.6280 H        65  POP59       0.0263
  7968 H15Y       -34.2140   -25.2740    -0.3310 H        65  POP59       0.0263
  7969 C316       -33.2030   -25.6270    -2.0870 C.3      65  POP59      -0.0653
  7970 H16X       -33.6550   -24.8980    -2.8380 H        65  POP59       0.0230
  7971 H16Y       -33.6720   -26.5600    -2.1820 H        65  POP59       0.0230
  7972 H16Z       -32.1350   -25.8210    -2.2960 H        65  POP59       0.0230
  7973 N           -8.4300    -3.4490    26.1240 N.3      66  POP60       0.2385
  7974 C12         -9.5080    -4.1810    25.3520 C.3      66  POP60      -0.0064
  7975 H12A        -9.0950    -5.0820    24.8600 H        66  POP60       0.0838
  7976 H12B        -9.9500    -3.5340    24.5880 H        66  POP60       0.0838
  7977 C13         -7.2760    -3.2170    25.1910 C.3      66  POP60      -0.0417
  7978 H13A        -6.5230    -2.8280    25.7500 H        66  POP60       0.0778
  7979 H13B        -6.9460    -4.2370    24.7640 H        66  POP60       0.0778
  7980 H13C        -7.6210    -2.6700    24.3640 H        66  POP60       0.0778
  7981 C14         -8.9030    -2.1240    26.4600 C.3      66  POP60      -0.0417
  7982 H14A        -8.7370    -1.4040    25.6820 H        66  POP60       0.0778
  7983 H14B        -9.9850    -2.1780    26.6850 H        66  POP60       0.0778
  7984 H14C        -8.3550    -1.6830    27.2490 H        66  POP60       0.0778
  7985 C15         -7.8440    -4.2100    27.2850 C.3      66  POP60      -0.0417
  7986 H15A        -8.4370    -4.2760    28.1340 H        66  POP60       0.0778
  7987 H15B        -6.9410    -3.6700    27.5920 H        66  POP60       0.0778
  7988 H15C        -7.3670    -5.1750    26.9890 H        66  POP60       0.0778
  7989 C11        -10.7560    -4.4590    26.2220 C.3      66  POP60       0.0954
  7990 H11A       -10.4240    -4.8880    27.2670 H        66  POP60       0.0618
  7991 H11B       -11.3070    -5.2070    25.5920 H        66  POP60       0.0618
  7992 P          -12.5190    -2.6280    25.4380 P.3      66  POP60       0.2645
  7993 O13        -12.4350    -1.2170    25.6280 O.co2    66  POP60      -0.5105
  7994 O14        -13.8490    -3.3530    25.5400 O.co2    66  POP60      -0.5105
  7995 O12        -11.5090    -3.2620    26.4670 O.3      66  POP60      -0.3154
  7996 O11        -11.8280    -2.9010    24.0280 O.3      66  POP60      -0.3181
  7997 C1         -12.5100    -2.8140    22.8130 C.3      66  POP60       0.0845
  7998 HA         -13.0170    -1.8270    22.6720 H        66  POP60       0.0591
  7999 HB         -13.2470    -3.6360    22.8410 H        66  POP60       0.0591
  8000 C2         -11.5280    -2.9600    21.6250 C.3      66  POP60       0.1155
  8001 HS         -10.9420    -3.9210    21.6830 H        66  POP60       0.0649
  8002 O21        -10.7420    -1.7890    21.3270 O.3      66  POP60      -0.3072
  8003 C21         -9.4500    -1.9470    21.5250 C.2      66  POP60       0.2626
  8004 O22         -8.8960    -2.9510    22.0300 O.2      66  POP60      -0.2650
  8005 C22         -8.7370    -0.6920    21.1070 C.3      66  POP60       0.0332
  8006 H2R         -8.1370    -0.3550    22.0370 H        66  POP60       0.0366
  8007 H2S         -9.4910    -0.0010    20.6850 H        66  POP60       0.0366
  8008 C3         -12.4180    -3.2400    20.3830 C.3      66  POP60       0.0860
  8009 HX         -12.8590    -2.2520    20.1100 H        66  POP60       0.0593
  8010 HY         -13.2280    -3.8940    20.7350 H        66  POP60       0.0593
  8011 O31        -11.7050    -3.8030    19.2930 O.3      66  POP60      -0.3125
  8012 C31        -12.3990    -3.7720    18.1700 C.2      66  POP60       0.2622
  8013 O32        -13.4800    -3.2720    18.1040 O.2      66  POP60      -0.2650
  8014 C32        -11.5420    -4.4060    17.1240 C.3      66  POP60       0.0332
  8015 H2X        -11.2220    -5.4120    17.5050 H        66  POP60       0.0366
  8016 H2Y        -10.6370    -3.7170    17.0180 H        66  POP60       0.0366
  8017 C23         -7.8620    -1.1610    19.9300 C.3      66  POP60      -0.0441
  8018 H3R         -7.1030    -1.9130    20.1750 H        66  POP60       0.0270
  8019 H3S         -7.2060    -0.2860    19.5070 H        66  POP60       0.0270
  8020 C24         -8.7590    -1.5110    18.6160 C.3      66  POP60      -0.0526
  8021 H4R         -9.6410    -0.8440    18.5940 H        66  POP60       0.0265
  8022 H4S         -9.1620    -2.5260    18.7850 H        66  POP60       0.0265
  8023 C25         -8.0330    -1.4700    17.2310 C.3      66  POP60      -0.0530
  8024 H5R         -7.4170    -2.3370    17.1190 H        66  POP60       0.0265
  8025 H5S         -7.3520    -0.6370    17.2820 H        66  POP60       0.0265
  8026 C26         -8.9890    -1.2280    16.0420 C.3      66  POP60      -0.0528
  8027 H6R         -9.8160    -1.9750    16.0750 H        66  POP60       0.0265
  8028 H6S         -8.4000    -1.5300    15.2270 H        66  POP60       0.0265
  8029 C27         -9.5880     0.2290    15.8580 C.3      66  POP60      -0.0496
  8030 H7R         -8.8970     1.0580    15.6380 H        66  POP60       0.0268
  8031 H7S        -10.0150     0.5320    16.8440 H        66  POP60       0.0268
  8032 C28        -10.7860     0.2990    14.8960 C.3      66  POP60      -0.0348
  8033 H8R        -10.9870     1.3710    14.6120 H        66  POP60       0.0307
  8034 H8S        -11.6830    -0.1400    15.3470 H        66  POP60       0.0307
  8035 C29        -10.3490    -0.4270    13.6520 C.2      66  POP60      -0.0879
  8036 H91        -10.5060    -1.5490    13.6960 H        66  POP60       0.0569
  8037 C210        -9.8010     0.1220    12.5640 C.2      66  POP60      -0.0879
  8038 H101        -9.5630    -0.5810    11.6900 H        66  POP60       0.0569
  8039 C211        -9.4200     1.6630    12.4290 C.3      66  POP60      -0.0348
  8040 H11R        -8.4890     1.8230    12.8780 H        66  POP60       0.0307
  8041 H11S       -10.0940     2.4050    12.9710 H        66  POP60       0.0307
  8042 C212        -9.6030     2.0840    10.9260 C.3      66  POP60      -0.0496
  8043 H12R       -10.7610     2.0670    10.6770 H        66  POP60       0.0268
  8044 H12S        -9.0820     1.3860    10.2790 H        66  POP60       0.0268
  8045 C213        -8.9740     3.4840    10.5600 C.3      66  POP60      -0.0528
  8046 H13R        -7.8730     3.4810    10.7810 H        66  POP60       0.0265
  8047 H13S        -9.5530     4.2340    11.1260 H        66  POP60       0.0265
  8048 C214        -9.1940     3.7510     9.0680 C.3      66  POP60      -0.0530
  8049 H14R       -10.2550     3.6150     8.8200 H        66  POP60       0.0265
  8050 H14S        -8.7330     2.8660     8.4880 H        66  POP60       0.0265
  8051 C215        -8.5280     5.0760     8.6120 C.3      66  POP60      -0.0531
  8052 H15R        -7.5270     5.0970     9.0770 H        66  POP60       0.0265
  8053 H15S        -9.1100     5.8650     9.0180 H        66  POP60       0.0265
  8054 C216        -8.3560     5.3400     7.1300 C.3      66  POP60      -0.0533
  8055 H16R        -9.3150     5.3680     6.5350 H        66  POP60       0.0265
  8056 H16S        -7.7050     4.5460     6.7210 H        66  POP60       0.0265
  8057 C217        -7.6380     6.6980     6.9560 C.3      66  POP60      -0.0559
  8058 H17R        -6.6910     6.5870     7.5210 H        66  POP60       0.0263
  8059 H17S        -8.0970     7.6620     7.3060 H        66  POP60       0.0263
  8060 C218        -7.4290     7.0940     5.4540 C.3      66  POP60      -0.0653
  8061 H18R        -8.3930     7.2730     5.0180 H        66  POP60       0.0230
  8062 H18S        -6.9990     6.2460     4.9250 H        66  POP60       0.0230
  8063 H18T        -6.8140     8.0010     5.4650 H        66  POP60       0.0230
  8064 C33        -12.2180    -4.4900    15.7590 C.3      66  POP60      -0.0441
  8065 H3X        -12.6520    -3.4750    15.4710 H        66  POP60       0.0270
  8066 H3Y        -12.9580    -5.2720    15.8400 H        66  POP60       0.0270
  8067 C34        -11.1590    -5.0030    14.7200 C.3      66  POP60      -0.0526
  8068 H4X        -10.9380    -6.0690    14.7890 H        66  POP60       0.0265
  8069 H4Y        -10.2140    -4.4830    14.8640 H        66  POP60       0.0265
  8070 C35        -11.5770    -4.7500    13.2440 C.3      66  POP60      -0.0530
  8071 H5X        -11.8880    -3.7790    13.0980 H        66  POP60       0.0265
  8072 H5Y        -12.3850    -5.4640    13.1580 H        66  POP60       0.0265
  8073 C36        -10.4380    -5.0310    12.2300 C.3      66  POP60      -0.0531
  8074 H6X        -10.1480    -6.0250    12.3020 H        66  POP60       0.0265
  8075 H6Y         -9.5230    -4.4050    12.4680 H        66  POP60       0.0265
  8076 C37        -10.9190    -4.7280    10.8640 C.3      66  POP60      -0.0531
  8077 H7X        -11.1010    -3.5980    10.8220 H        66  POP60       0.0265
  8078 H7Y        -11.9050    -5.1780    10.4530 H        66  POP60       0.0265
  8079 C38         -9.8530    -5.0340     9.7770 C.3      66  POP60      -0.0531
  8080 H8X         -9.7300    -6.1630     9.7010 H        66  POP60       0.0265
  8081 H8Y         -8.8560    -4.6910    10.1130 H        66  POP60       0.0265
  8082 C39        -10.1920    -4.4560     8.3600 C.3      66  POP60      -0.0531
  8083 H9X         -9.4270    -4.7590     7.6480 H        66  POP60       0.0265
  8084 H9Y        -10.3300    -3.3910     8.1850 H        66  POP60       0.0265
  8085 C310       -11.3270    -5.1740     7.6930 C.3      66  POP60      -0.0531
  8086 H10X       -12.2920    -5.1320     8.2810 H        66  POP60       0.0265
  8087 H10Y       -10.9690    -6.2560     7.5650 H        66  POP60       0.0265
  8088 C311       -11.7110    -4.6710     6.2690 C.3      66  POP60      -0.0531
  8089 H11X       -10.7210    -4.4360     5.7430 H        66  POP60       0.0265
  8090 H11Y       -12.2070    -3.7370     6.3690 H        66  POP60       0.0265
  8091 C312       -12.4570    -5.7610     5.5090 C.3      66  POP60      -0.0531
  8092 H12X       -13.0230    -5.2260     4.6800 H        66  POP60       0.0265
  8093 H12Y       -13.1190    -6.1480     6.2750 H        66  POP60       0.0265
  8094 C313       -11.6820    -6.9160     4.8580 C.3      66  POP60      -0.0531
  8095 H13X       -12.4760    -7.6740     4.5600 H        66  POP60       0.0265
  8096 H13Y       -10.8860    -7.3960     5.5510 H        66  POP60       0.0265
  8097 C314       -11.0250    -6.3760     3.5580 C.3      66  POP60      -0.0533
  8098 H14X       -10.4890    -5.4750     3.7080 H        66  POP60       0.0265
  8099 H14Y       -11.8470    -6.0880     2.8280 H        66  POP60       0.0265
  8100 C315       -10.2750    -7.5590     2.8720 C.3      66  POP60      -0.0559
  8101 H15X       -10.7580    -8.5330     2.9270 H        66  POP60       0.0263
  8102 H15Y        -9.2830    -7.8060     3.3550 H        66  POP60       0.0263
  8103 C316       -10.0090    -7.1270     1.4630 C.3      66  POP60      -0.0653
  8104 H16X       -10.9150    -7.3070     0.8800 H        66  POP60       0.0230
  8105 H16Y        -9.1770    -7.6890     0.9860 H        66  POP60       0.0230
  8106 H16Z        -9.7080    -6.0490     1.3330 H        66  POP60       0.0230
  8107 N          -26.7730     6.4730    24.3180 N.3      67  POP61       0.2385
  8108 C12        -27.2500     6.5670    22.8800 C.3      67  POP61      -0.0064
  8109 H12A       -27.4540     7.6360    22.7690 H        67  POP61       0.0838
  8110 H12B       -28.1600     5.9830    22.9140 H        67  POP61       0.0838
  8111 C13        -27.8780     6.8260    25.2730 C.3      67  POP61      -0.0417
  8112 H13A       -27.4410     6.9160    26.3040 H        67  POP61       0.0778
  8113 H13B       -28.2490     7.8240    24.9780 H        67  POP61       0.0778
  8114 H13C       -28.6600     6.1410    25.3660 H        67  POP61       0.0778
  8115 C14        -26.2730     5.0400    24.6540 C.3      67  POP61      -0.0417
  8116 H14A       -25.8420     4.9630    25.5880 H        67  POP61       0.0778
  8117 H14B       -27.1120     4.3410    24.5660 H        67  POP61       0.0778
  8118 H14C       -25.5630     4.8110    23.8450 H        67  POP61       0.0778
  8119 C15        -25.6160     7.3520    24.5540 C.3      67  POP61      -0.0417
  8120 H15A       -25.7480     8.4100    24.2480 H        67  POP61       0.0778
  8121 H15B       -24.6880     7.0220    24.0490 H        67  POP61       0.0778
  8122 H15C       -25.3260     7.2410    25.6180 H        67  POP61       0.0778
  8123 C11        -26.3640     6.0710    21.6710 C.3      67  POP61       0.0954
  8124 H11A       -25.5060     6.7210    21.5970 H        67  POP61       0.0618
  8125 H11B       -26.8540     6.2060    20.7020 H        67  POP61       0.0618
  8126 P          -26.5770     3.5360    21.0360 P.3      67  POP61       0.2645
  8127 O13        -28.0480     3.5900    21.3330 O.co2    67  POP61      -0.5105
  8128 O14        -25.9720     2.2090    21.3040 O.co2    67  POP61      -0.5105
  8129 O12        -25.8500     4.6940    21.7950 O.3      67  POP61      -0.3154
  8130 O11        -26.4770     3.8450    19.4910 O.3      67  POP61      -0.3181
  8131 C1         -25.2830     4.5230    18.9880 C.3      67  POP61       0.0845
  8132 HA         -24.4840     4.6860    19.6950 H        67  POP61       0.0591
  8133 HB         -25.6460     5.6100    18.7690 H        67  POP61       0.0591
  8134 C2         -24.7500     3.7820    17.7120 C.3      67  POP61       0.1155
  8135 HS         -23.8170     4.2920    17.3080 H        67  POP61       0.0649
  8136 O21        -25.7740     3.8170    16.7370 O.3      67  POP61      -0.3072
  8137 C21        -26.0090     5.0160    16.2610 C.2      67  POP61       0.2626
  8138 O22        -25.2900     5.9790    16.4270 O.2      67  POP61      -0.2650
  8139 C22        -27.4090     5.0280    15.5860 C.3      67  POP61       0.0332
  8140 H2R        -28.0210     5.4800    16.4410 H        67  POP61       0.0366
  8141 H2S        -27.6360     3.9730    15.4210 H        67  POP61       0.0366
  8142 C3         -24.1480     2.3710    18.0590 C.3      67  POP61       0.0860
  8143 HX         -24.9720     1.9760    18.6810 H        67  POP61       0.0593
  8144 HY         -23.1760     2.4340    18.5980 H        67  POP61       0.0593
  8145 O31        -23.9500     1.6580    16.7690 O.3      67  POP61      -0.3125
  8146 C31        -25.0790     1.0980    16.3960 C.2      67  POP61       0.2622
  8147 O32        -26.0880     1.0220    17.0200 O.2      67  POP61      -0.2650
  8148 C32        -24.9100     0.6670    14.9780 C.3      67  POP61       0.0332
  8149 H2X        -24.9880    -0.4670    14.8590 H        67  POP61       0.0366
  8150 H2Y        -23.9730     0.9580    14.3730 H        67  POP61       0.0366
  8151 C23        -27.4340     5.8840    14.2980 C.3      67  POP61      -0.0441
  8152 H3R        -27.0930     6.9440    14.5120 H        67  POP61       0.0270
  8153 H3S        -28.5180     6.0320    14.0670 H        67  POP61       0.0270
  8154 C24        -26.7240     5.2690    13.1200 C.3      67  POP61      -0.0526
  8155 H4R        -26.9870     4.2100    13.1150 H        67  POP61       0.0265
  8156 H4S        -25.6260     5.5460    13.1340 H        67  POP61       0.0265
  8157 C25        -27.2180     5.8810    11.8380 C.3      67  POP61      -0.0530
  8158 H5R        -27.0200     6.9680    12.0050 H        67  POP61       0.0265
  8159 H5S        -28.3900     5.7920    11.6230 H        67  POP61       0.0265
  8160 C26        -26.4740     5.2200    10.6650 C.3      67  POP61      -0.0528
  8161 H6R        -26.4830     4.1630    10.7910 H        67  POP61       0.0265
  8162 H6S        -25.4770     5.5730    10.7710 H        67  POP61       0.0265
  8163 C27        -27.1080     5.7280     9.3770 C.3      67  POP61      -0.0496
  8164 H7R        -27.1030     6.7970     9.2180 H        67  POP61       0.0268
  8165 H7S        -28.2120     5.5430     9.4970 H        67  POP61       0.0268
  8166 C28        -26.5000     4.9600     8.1770 C.3      67  POP61      -0.0348
  8167 H8R        -25.4050     5.0110     8.1520 H        67  POP61       0.0307
  8168 H8S        -26.8210     5.3560     7.2680 H        67  POP61       0.0307
  8169 C29        -26.7950     3.5350     8.2110 C.2      67  POP61      -0.0879
  8170 H91        -27.1040     3.1540     9.1980 H        67  POP61       0.0569
  8171 C210       -26.7630     2.6610     7.2110 C.2      67  POP61      -0.0879
  8172 H101       -27.1260     1.5510     7.3560 H        67  POP61       0.0569
  8173 C211       -26.3670     2.9510     5.7420 C.3      67  POP61      -0.0348
  8174 H11R       -25.4670     2.3180     5.5160 H        67  POP61       0.0307
  8175 H11S       -26.2200     4.0570     5.4960 H        67  POP61       0.0307
  8176 C212       -27.4740     2.4960     4.7300 C.3      67  POP61      -0.0496
  8177 H12R       -28.4410     3.0460     4.9540 H        67  POP61       0.0268
  8178 H12S       -27.6710     1.4820     4.8840 H        67  POP61       0.0268
  8179 C213       -27.0700     2.7280     3.3130 C.3      67  POP61      -0.0528
  8180 H13R       -26.4490     1.9920     2.8810 H        67  POP61       0.0265
  8181 H13S       -26.4960     3.7410     3.1180 H        67  POP61       0.0265
  8182 C214       -28.3120     2.8940     2.3620 C.3      67  POP61      -0.0530
  8183 H14R       -27.9320     3.3400     1.3970 H        67  POP61       0.0265
  8184 H14S       -29.0230     3.6890     2.8210 H        67  POP61       0.0265
  8185 C215       -28.8630     1.4530     2.0760 C.3      67  POP61      -0.0531
  8186 H15R       -29.9100     1.6370     1.8590 H        67  POP61       0.0265
  8187 H15S       -28.9460     0.9590     3.0280 H        67  POP61       0.0265
  8188 C216       -28.2730     0.6840     0.8710 C.3      67  POP61      -0.0533
  8189 H16R       -27.2200     0.6160     1.1110 H        67  POP61       0.0265
  8190 H16S       -28.3710     1.4390     0.0190 H        67  POP61       0.0265
  8191 C217       -28.8930    -0.6540     0.5020 C.3      67  POP61      -0.0559
  8192 H17R       -29.9440    -0.3200     0.5570 H        67  POP61       0.0263
  8193 H17S       -28.6620    -1.4000     1.3270 H        67  POP61       0.0263
  8194 C218       -28.5730    -1.1110    -0.8960 C.3      67  POP61      -0.0653
  8195 H18R       -28.9690    -0.4400    -1.6160 H        67  POP61       0.0230
  8196 H18S       -29.0540    -2.0160    -1.1750 H        67  POP61       0.0230
  8197 H18T       -27.4840    -1.1310    -0.9610 H        67  POP61       0.0230
  8198 C33        -26.1410     1.1620    14.2390 C.3      67  POP61      -0.0441
  8199 H3X        -26.3820     2.2660    14.1860 H        67  POP61       0.0270
  8200 H3Y        -27.0690     0.7230    14.7080 H        67  POP61       0.0270
  8201 C34        -26.1610     0.7690    12.7230 C.3      67  POP61      -0.0526
  8202 H4X        -26.0700    -0.3120    12.7490 H        67  POP61       0.0265
  8203 H4Y        -25.2950     1.2380    12.1890 H        67  POP61       0.0265
  8204 C35        -27.5340     0.8670    12.1000 C.3      67  POP61      -0.0530
  8205 H5X        -27.7850     2.0140    11.9630 H        67  POP61       0.0265
  8206 H5Y        -28.3510     0.4740    12.7330 H        67  POP61       0.0265
  8207 C36        -27.5540     0.2360    10.6460 C.3      67  POP61      -0.0531
  8208 H6X        -26.9650    -0.6830    10.6640 H        67  POP61       0.0265
  8209 H6Y        -27.0430     0.9440     9.9520 H        67  POP61       0.0265
  8210 C37        -28.9160    -0.0920    10.0360 C.3      67  POP61      -0.0531
  8211 H7X        -29.4200     0.9000     9.7820 H        67  POP61       0.0265
  8212 H7Y        -29.6470    -0.4900    10.8150 H        67  POP61       0.0265
  8213 C38        -28.9140    -0.9140     8.7920 C.3      67  POP61      -0.0531
  8214 H8X        -28.7910    -1.9830     9.2590 H        67  POP61       0.0265
  8215 H8Y        -28.1220    -0.6150     8.1020 H        67  POP61       0.0265
  8216 C39        -30.2050    -0.9330     7.9700 C.3      67  POP61      -0.0531
  8217 H9X        -30.4480     0.0750     7.5720 H        67  POP61       0.0265
  8218 H9Y        -31.0170    -1.2680     8.7000 H        67  POP61       0.0265
  8219 C310       -30.0620    -1.9560     6.8290 C.3      67  POP61      -0.0531
  8220 H10X       -31.0650    -1.9850     6.3170 H        67  POP61       0.0265
  8221 H10Y       -29.9600    -2.9950     7.2640 H        67  POP61       0.0265
  8222 C311       -29.0330    -1.5700     5.8270 C.3      67  POP61      -0.0531
  8223 H11X       -27.9890    -1.6760     6.2540 H        67  POP61       0.0265
  8224 H11Y       -29.1470    -0.5200     5.6140 H        67  POP61       0.0265
  8225 C312       -28.9930    -2.4360     4.4880 C.3      67  POP61      -0.0531
  8226 H12X       -29.4090    -1.9200     3.5980 H        67  POP61       0.0265
  8227 H12Y       -29.4200    -3.4530     4.6930 H        67  POP61       0.0265
  8228 C313       -27.4940    -2.7570     4.1240 C.3      67  POP61      -0.0531
  8229 H13X       -27.6220    -3.5410     3.3040 H        67  POP61       0.0265
  8230 H13Y       -27.0310    -3.2820     5.0420 H        67  POP61       0.0265
  8231 C314       -26.6770    -1.5030     3.8280 C.3      67  POP61      -0.0533
  8232 H14X       -26.6690    -0.7090     4.5450 H        67  POP61       0.0265
  8233 H14Y       -27.0300    -1.0830     2.7640 H        67  POP61       0.0265
  8234 C315       -25.2050    -1.7530     3.3520 C.3      67  POP61      -0.0559
  8235 H15X       -24.7210    -2.3380     4.1610 H        67  POP61       0.0263
  8236 H15Y       -24.7530    -0.7690     3.2720 H        67  POP61       0.0263
  8237 C316       -25.1370    -2.5820     2.0930 C.3      67  POP61      -0.0653
  8238 H16X       -24.0400    -2.8180     1.8940 H        67  POP61       0.0230
  8239 H16Y       -25.6020    -1.9990     1.2390 H        67  POP61       0.0230
  8240 H16Z       -25.7140    -3.5060     2.2010 H        67  POP61       0.0230
  8241 N           22.0300   -13.3880    20.9400 N.3      68  POP62       0.2385
  8242 C12         21.2720   -12.1060    20.8350 C.3      68  POP62      -0.0064
  8243 H12A        21.3850   -11.8780    19.7800 H        68  POP62       0.0838
  8244 H12B        21.7980   -11.3150    21.3310 H        68  POP62       0.0838
  8245 C13         21.6200   -14.4670    20.0140 C.3      68  POP62      -0.0417
  8246 H13A        20.5580   -14.8480    20.0840 H        68  POP62       0.0778
  8247 H13B        21.7360   -14.2030    18.8620 H        68  POP62       0.0778
  8248 H13C        22.3940   -15.2500    20.1830 H        68  POP62       0.0778
  8249 C14         23.4890   -13.2370    20.6330 C.3      68  POP62      -0.0417
  8250 H14A        23.6210   -12.8030    19.6640 H        68  POP62       0.0778
  8251 H14B        24.1050   -12.7360    21.3400 H        68  POP62       0.0778
  8252 H14C        23.9600   -14.1830    20.6170 H        68  POP62       0.0778
  8253 C15         21.9440   -14.0270    22.2900 C.3      68  POP62      -0.0417
  8254 H15A        20.9230   -14.3290    22.5130 H        68  POP62       0.0778
  8255 H15B        22.2880   -13.3580    23.0980 H        68  POP62       0.0778
  8256 H15C        22.5700   -14.9990    22.3520 H        68  POP62       0.0778
  8257 C11         19.7650   -12.0590    21.2680 C.3      68  POP62       0.0954
  8258 H11A        19.4000   -11.0870    20.9330 H        68  POP62       0.0618
  8259 H11B        19.6340   -12.1250    22.3480 H        68  POP62       0.0618
  8260 P           18.5100   -13.1470    19.1840 P.3      68  POP62       0.2645
  8261 O13         17.3610   -12.2190    19.0940 O.co2    68  POP62      -0.5105
  8262 O14         18.3150   -14.5950    18.7480 O.co2    68  POP62      -0.5105
  8263 O12         18.9900   -13.1740    20.6970 O.3      68  POP62      -0.3154
  8264 O11         19.6270   -12.5280    18.3240 O.3      68  POP62      -0.3181
  8265 C1          19.7120   -12.7620    16.8660 C.3      68  POP62       0.0845
  8266 HA          18.8040   -13.2300    16.3840 H        68  POP62       0.0591
  8267 HB          20.4340   -13.5700    16.6460 H        68  POP62       0.0591
  8268 C2          20.1990   -11.5860    16.0660 C.3      68  POP62       0.1155
  8269 HS          21.1080   -11.2810    16.5780 H        68  POP62       0.0649
  8270 O21         19.2430   -10.5430    16.0540 O.3      68  POP62      -0.3072
  8271 C21         19.3950    -9.6090    16.9210 C.2      68  POP62       0.2626
  8272 O22         20.3820    -9.3460    17.5590 O.2      68  POP62      -0.2650
  8273 C22         18.1590    -8.7030    17.0150 C.3      68  POP62       0.0332
  8274 H2R         18.5410    -7.8250    17.6240 H        68  POP62       0.0366
  8275 H2S         17.3480    -9.2500    17.5800 H        68  POP62       0.0366
  8276 C3          20.6720   -11.9400    14.6020 C.3      68  POP62       0.0860
  8277 HX          19.7330   -11.7740    14.0040 H        68  POP62       0.0593
  8278 HY          20.9720   -12.9920    14.6220 H        68  POP62       0.0593
  8279 O31         21.6720   -11.0470    14.2070 O.3      68  POP62      -0.3125
  8280 C31         22.9110   -11.5410    14.2370 C.2      68  POP62       0.2622
  8281 O32         23.3840   -12.6020    14.5750 O.2      68  POP62      -0.2650
  8282 C32         23.8370   -10.3930    13.8720 C.3      68  POP62       0.0332
  8283 H2X         24.6350   -10.3450    14.6090 H        68  POP62       0.0366
  8284 H2Y         23.3010    -9.4340    13.7820 H        68  POP62       0.0366
  8285 C23         17.5560    -8.2140    15.7140 C.3      68  POP62      -0.0441
  8286 H3R         16.9160    -9.0580    15.3780 H        68  POP62       0.0270
  8287 H3S         18.3580    -8.0850    14.9710 H        68  POP62       0.0270
  8288 C24         16.7660    -6.8950    15.7520 C.3      68  POP62      -0.0526
  8289 H4R         17.3710    -6.2100    16.3060 H        68  POP62       0.0265
  8290 H4S         15.8800    -6.9810    16.3990 H        68  POP62       0.0265
  8291 C25         16.3290    -6.3620    14.4300 C.3      68  POP62      -0.0530
  8292 H5R         15.4950    -6.9440    13.9460 H        68  POP62       0.0265
  8293 H5S         17.2330    -6.2750    13.7720 H        68  POP62       0.0265
  8294 C26         15.8490    -4.8910    14.5980 C.3      68  POP62      -0.0528
  8295 H6R         15.2770    -4.7850    15.6000 H        68  POP62       0.0265
  8296 H6S         15.2590    -4.7110    13.6770 H        68  POP62       0.0265
  8297 C27         16.9100    -3.8020    14.6350 C.3      68  POP62      -0.0496
  8298 H7R         17.6170    -4.0860    15.5380 H        68  POP62       0.0268
  8299 H7S         16.3660    -2.7760    14.8150 H        68  POP62       0.0268
  8300 C28         17.6900    -3.6230    13.3580 C.3      68  POP62      -0.0348
  8301 H8R         17.0540    -3.6880    12.4130 H        68  POP62       0.0307
  8302 H8S         18.3870    -4.5340    13.1330 H        68  POP62       0.0307
  8303 C29         18.5980    -2.4040    13.2750 C.2      68  POP62      -0.0879
  8304 H91         19.2310    -2.3330    14.1440 H        68  POP62       0.0569
  8305 C210        18.7050    -1.5560    12.2690 C.2      68  POP62      -0.0879
  8306 H101        19.5520    -0.8290    12.3790 H        68  POP62       0.0569
  8307 C211        17.9120    -1.5860    10.9750 C.3      68  POP62      -0.0348
  8308 H11R        17.9950    -0.5770    10.4080 H        68  POP62       0.0307
  8309 H11S        16.8060    -1.7440    11.2010 H        68  POP62       0.0307
  8310 C212        18.4430    -2.5620     9.8690 C.3      68  POP62      -0.0496
  8311 H12R        17.8210    -2.3830     8.9760 H        68  POP62       0.0268
  8312 H12S        18.2950    -3.6620    10.1880 H        68  POP62       0.0268
  8313 C213        19.8280    -2.3490     9.4570 C.3      68  POP62      -0.0528
  8314 H13R        20.0310    -1.2310     9.4560 H        68  POP62       0.0265
  8315 H13S        19.9270    -2.7470     8.3760 H        68  POP62       0.0265
  8316 C214        20.9810    -3.1690    10.1580 C.3      68  POP62      -0.0530
  8317 H14R        20.6370    -4.2000    10.3960 H        68  POP62       0.0265
  8318 H14S        21.2230    -2.6890    11.1340 H        68  POP62       0.0265
  8319 C215        22.3150    -3.0830     9.3010 C.3      68  POP62      -0.0531
  8320 H15R        22.7050    -2.0830     9.2070 H        68  POP62       0.0265
  8321 H15S        22.1240    -3.5440     8.3320 H        68  POP62       0.0265
  8322 C216        23.3820    -3.7670    10.0000 C.3      68  POP62      -0.0533
  8323 H16R        23.3560    -3.3770    11.0020 H        68  POP62       0.0265
  8324 H16S        24.4340    -3.5540     9.5600 H        68  POP62       0.0265
  8325 C217        23.0880    -5.2850    10.0620 C.3      68  POP62      -0.0559
  8326 H17R        22.8300    -5.6060     9.0180 H        68  POP62       0.0263
  8327 H17S        22.1490    -5.4850    10.6660 H        68  POP62       0.0263
  8328 C218        24.2560    -6.1710    10.5610 C.3      68  POP62      -0.0653
  8329 H18R        24.9130    -6.2530     9.6650 H        68  POP62       0.0230
  8330 H18S        23.9320    -7.2600    10.7490 H        68  POP62       0.0230
  8331 H18T        24.8860    -5.7030    11.3810 H        68  POP62       0.0230
  8332 C33         24.4860   -10.7230    12.4860 C.3      68  POP62      -0.0441
  8333 H3X         25.2010   -11.5350    12.6690 H        68  POP62       0.0270
  8334 H3Y         25.1090    -9.8770    12.1680 H        68  POP62       0.0270
  8335 C34         23.6670   -11.0230    11.3060 C.3      68  POP62      -0.0526
  8336 H4X         22.9460   -10.1670    11.1980 H        68  POP62       0.0265
  8337 H4Y         23.1530   -11.9880    11.5520 H        68  POP62       0.0265
  8338 C35         24.5550   -11.1630    10.0500 C.3      68  POP62      -0.0530
  8339 H5X         25.1580   -12.1290    10.2380 H        68  POP62       0.0265
  8340 H5Y         25.3030   -10.2840     9.9950 H        68  POP62       0.0265
  8341 C36         23.7620   -11.3320     8.7550 C.3      68  POP62      -0.0531
  8342 H6X         23.0330   -12.0680     8.9010 H        68  POP62       0.0265
  8343 H6Y         24.4360   -11.6870     7.9790 H        68  POP62       0.0265
  8344 C37         23.1480    -9.9660     8.1580 C.3      68  POP62      -0.0531
  8345 H7X         23.9550    -9.1600     8.3610 H        68  POP62       0.0265
  8346 H7Y         22.3020    -9.6150     8.7540 H        68  POP62       0.0265
  8347 C38         22.8910   -10.0800     6.6060 C.3      68  POP62      -0.0531
  8348 H8X         23.8100   -10.3040     6.1080 H        68  POP62       0.0265
  8349 H8Y         22.5290    -9.0320     6.2920 H        68  POP62       0.0265
  8350 C39         21.8120   -11.1610     6.3280 C.3      68  POP62      -0.0531
  8351 H9X         22.1340   -12.0680     6.8830 H        68  POP62       0.0265
  8352 H9Y         21.7690   -11.4230     5.2610 H        68  POP62       0.0265
  8353 C310        20.3680   -10.9500     6.8240 C.3      68  POP62      -0.0531
  8354 H10X        19.9680    -9.9750     6.4310 H        68  POP62       0.0265
  8355 H10Y        20.4990   -10.7220     7.9120 H        68  POP62       0.0265
  8356 C311        19.4990   -12.1760     6.5320 C.3      68  POP62      -0.0531
  8357 H11X        19.8770   -13.0460     7.1210 H        68  POP62       0.0265
  8358 H11Y        19.6600   -12.4610     5.5060 H        68  POP62       0.0265
  8359 C312        17.9770   -11.9200     6.7870 C.3      68  POP62      -0.0531
  8360 H12X        17.5050   -11.1380     6.0340 H        68  POP62       0.0265
  8361 H12Y        17.8610   -11.5900     7.8190 H        68  POP62       0.0265
  8362 C313        17.1440   -13.1560     6.5980 C.3      68  POP62      -0.0531
  8363 H13X        17.4030   -13.9740     7.3590 H        68  POP62       0.0265
  8364 H13Y        17.3940   -13.5640     5.6380 H        68  POP62       0.0265
  8365 C314        15.6630   -12.8900     6.6590 C.3      68  POP62      -0.0533
  8366 H14X        15.2420   -12.1140     5.9050 H        68  POP62       0.0265
  8367 H14Y        15.5650   -12.4690     7.7460 H        68  POP62       0.0265
  8368 C315        14.7630   -14.1280     6.7430 C.3      68  POP62      -0.0559
  8369 H15X        13.7720   -13.9210     7.2290 H        68  POP62       0.0263
  8370 H15Y        15.2590   -14.8630     7.4240 H        68  POP62       0.0263
  8371 C316        14.4520   -14.7540     5.3880 C.3      68  POP62      -0.0653
  8372 H16X        14.2030   -15.7930     5.4620 H        68  POP62       0.0230
  8373 H16Y        15.2590   -14.6480     4.6220 H        68  POP62       0.0230
  8374 H16Z        13.6600   -14.2160     4.8560 H        68  POP62       0.0230
  8375 N          -29.9840    13.3440    23.5590 N.3      69  POP63       0.2385
  8376 C12        -30.0280    12.2790    22.4500 C.3      69  POP63      -0.0064
  8377 H12A       -29.7830    11.2880    22.8970 H        69  POP63       0.0838
  8378 H12B       -29.1400    12.3550    21.7400 H        69  POP63       0.0838
  8379 C13        -28.8530    13.0420    24.5270 C.3      69  POP63      -0.0417
  8380 H13A       -28.9490    12.0260    24.9660 H        69  POP63       0.0778
  8381 H13B       -27.9060    12.8940    23.9330 H        69  POP63       0.0778
  8382 H13C       -28.6360    13.8300    25.2070 H        69  POP63       0.0778
  8383 C14        -29.8460    14.6730    22.8690 C.3      69  POP63      -0.0417
  8384 H14A       -28.8340    14.7690    22.5000 H        69  POP63       0.0778
  8385 H14B       -30.5070    14.8140    21.9970 H        69  POP63       0.0778
  8386 H14C       -29.9100    15.5930    23.4480 H        69  POP63       0.0778
  8387 C15        -31.1750    13.3560    24.4090 C.3      69  POP63      -0.0417
  8388 H15A       -32.0290    13.3530    23.7790 H        69  POP63       0.0778
  8389 H15B       -31.2730    14.2740    25.0320 H        69  POP63       0.0778
  8390 H15C       -31.3010    12.4200    24.9350 H        69  POP63       0.0778
  8391 C11        -31.2120    12.2460    21.5280 C.3      69  POP63       0.0954
  8392 H11A       -30.9840    11.6260    20.5910 H        69  POP63       0.0618
  8393 H11B       -31.4550    13.3250    21.2460 H        69  POP63       0.0618
  8394 P          -33.7800    12.0260    22.0590 P.3      69  POP63       0.2645
  8395 O13        -34.0130    13.3910    22.4370 O.co2    69  POP63      -0.5105
  8396 O14        -34.5760    11.0070    22.8090 O.co2    69  POP63      -0.5105
  8397 O12        -32.2490    11.6620    22.2640 O.3      69  POP63      -0.3154
  8398 O11        -34.0270    11.8590    20.5110 O.3      69  POP63      -0.3181
  8399 C1         -34.6480    12.9840    19.7980 C.3      69  POP63       0.0845
  8400 HA         -34.2120    13.9550    20.1290 H        69  POP63       0.0591
  8401 HB         -35.7370    13.0110    19.9280 H        69  POP63       0.0591
  8402 C2         -34.4010    12.8470    18.2840 C.3      69  POP63       0.1155
  8403 HS         -35.0700    13.5670    17.6790 H        69  POP63       0.0649
  8404 O21        -34.4730    11.5220    17.6660 O.3      69  POP63      -0.3072
  8405 C21        -35.7760    11.1660    17.4260 C.2      69  POP63       0.2626
  8406 O22        -36.7760    11.8330    17.6860 O.2      69  POP63      -0.2650
  8407 C22        -35.7190     9.9280    16.6260 C.3      69  POP63       0.0332
  8408 H2R        -36.5310     9.2220    17.0570 H        69  POP63       0.0366
  8409 H2S        -34.8000     9.3830    16.8300 H        69  POP63       0.0366
  8410 C3         -32.9620    13.3540    18.0090 C.3      69  POP63       0.0860
  8411 HX         -32.3610    12.7050    18.7550 H        69  POP63       0.0593
  8412 HY         -32.9930    14.4620    18.3350 H        69  POP63       0.0593
  8413 O31        -32.5110    13.1140    16.6210 O.3      69  POP63      -0.3125
  8414 C31        -31.3830    13.8240    16.3980 C.2      69  POP63       0.2622
  8415 O32        -30.8000    14.4480    17.2070 O.2      69  POP63      -0.2650
  8416 C32        -30.9310    13.7460    14.9240 C.3      69  POP63       0.0332
  8417 H2X        -30.9160    14.7420    14.4100 H        69  POP63       0.0366
  8418 H2Y        -31.6380    13.0740    14.4290 H        69  POP63       0.0366
  8419 C23        -35.8380    10.1930    15.1050 C.3      69  POP63      -0.0441
  8420 H3R        -36.8760    10.5180    14.8510 H        69  POP63       0.0270
  8421 H3S        -35.6830     9.1720    14.6700 H        69  POP63       0.0270
  8422 C24        -34.7680    11.1150    14.4440 C.3      69  POP63      -0.0526
  8423 H4R        -33.8070    10.5480    14.3420 H        69  POP63       0.0265
  8424 H4S        -34.5770    11.9900    15.0430 H        69  POP63       0.0265
  8425 C25        -35.1020    11.3130    12.9210 C.3      69  POP63      -0.0530
  8426 H5R        -36.0070    11.9830    12.8510 H        69  POP63       0.0265
  8427 H5S        -35.2550    10.3790    12.3480 H        69  POP63       0.0265
  8428 C26        -33.9290    11.9160    12.1160 C.3      69  POP63      -0.0528
  8429 H6R        -33.0840    11.1880    12.1510 H        69  POP63       0.0265
  8430 H6S        -33.6490    12.8510    12.6860 H        69  POP63       0.0265
  8431 C27        -34.3840    12.3860    10.7850 C.3      69  POP63      -0.0496
  8432 H7R        -35.1080    13.1670    11.1770 H        69  POP63       0.0268
  8433 H7S        -34.9150    11.6330    10.2250 H        69  POP63       0.0268
  8434 C28        -33.2710    12.9580     9.8690 C.3      69  POP63      -0.0348
  8435 H8R        -33.6830    13.3840     8.9830 H        69  POP63       0.0307
  8436 H8S        -32.7600    12.0730     9.5400 H        69  POP63       0.0307
  8437 C29        -32.2050    13.7430    10.5920 C.2      69  POP63      -0.0879
  8438 H91        -32.4290    14.1780    11.5520 H        69  POP63       0.0569
  8439 C210       -30.8920    13.8800    10.2270 C.2      69  POP63      -0.0879
  8440 H101       -30.1640    14.4920    10.8880 H        69  POP63       0.0569
  8441 C211       -30.3160    13.4130     8.9350 C.3      69  POP63      -0.0348
  8442 H11R       -30.7620    12.4550     8.4910 H        69  POP63       0.0307
  8443 H11S       -29.2330    13.1750     9.1400 H        69  POP63       0.0307
  8444 C212       -30.2100    14.5100     7.8680 C.3      69  POP63      -0.0496
  8445 H12R       -29.4600    15.3170     8.1820 H        69  POP63       0.0268
  8446 H12S       -31.1310    15.0930     7.8740 H        69  POP63       0.0268
  8447 C213       -30.1070    13.8930     6.5260 C.3      69  POP63      -0.0528
  8448 H13R       -31.1270    13.5750     6.1180 H        69  POP63       0.0265
  8449 H13S       -29.4820    13.0100     6.5820 H        69  POP63       0.0265
  8450 C214       -29.4470    14.8690     5.6040 C.3      69  POP63      -0.0530
  8451 H14R       -28.5280    15.1420     6.0600 H        69  POP63       0.0265
  8452 H14S       -30.1640    15.7880     5.5590 H        69  POP63       0.0265
  8453 C215       -29.4080    14.2950     4.1070 C.3      69  POP63      -0.0531
  8454 H15R       -30.4850    14.0600     3.7640 H        69  POP63       0.0265
  8455 H15S       -28.8530    13.3590     4.0200 H        69  POP63       0.0265
  8456 C216       -28.8210    15.3250     3.1010 C.3      69  POP63      -0.0533
  8457 H16R       -27.8060    15.5560     3.4260 H        69  POP63       0.0265
  8458 H16S       -29.4030    16.2710     3.1570 H        69  POP63       0.0265
  8459 C217       -28.6910    14.8770     1.6290 C.3      69  POP63      -0.0559
  8460 H17R       -29.6830    14.7000     1.2380 H        69  POP63       0.0263
  8461 H17S       -28.0940    13.9280     1.6170 H        69  POP63       0.0263
  8462 C218       -27.9710    15.9040     0.8580 C.3      69  POP63      -0.0653
  8463 H18R       -27.7250    15.7190    -0.2910 H        69  POP63       0.0230
  8464 H18S       -26.9820    16.1910     1.2840 H        69  POP63       0.0230
  8465 H18T       -28.6150    16.8710     0.9630 H        69  POP63       0.0230
  8466 C33        -29.4470    13.2300    14.7920 C.3      69  POP63      -0.0441
  8467 H3X        -29.3400    12.1120    14.7970 H        69  POP63       0.0270
  8468 H3Y        -28.8580    13.6840    15.6820 H        69  POP63       0.0270
  8469 C34        -28.6900    13.7860    13.5570 C.3      69  POP63      -0.0526
  8470 H4X        -29.0180    14.8220    13.3050 H        69  POP63       0.0265
  8471 H4Y        -28.9650    13.2120    12.5930 H        69  POP63       0.0265
  8472 C35        -27.2070    13.7720    13.5640 C.3      69  POP63      -0.0530
  8473 H5X        -26.9930    12.6470    13.7300 H        69  POP63       0.0265
  8474 H5Y        -26.7530    14.3040    14.4260 H        69  POP63       0.0265
  8475 C36        -26.5530    14.3380    12.3140 C.3      69  POP63      -0.0531
  8476 H6X        -26.6840    15.4200    12.3000 H        69  POP63       0.0265
  8477 H6Y        -27.1040    13.8930    11.4330 H        69  POP63       0.0265
  8478 C37        -25.0750    13.9580    12.1090 C.3      69  POP63      -0.0531
  8479 H7X        -25.0550    12.9290    11.7890 H        69  POP63       0.0265
  8480 H7Y        -24.5970    14.1790    12.9980 H        69  POP63       0.0265
  8481 C38        -24.3790    14.7320    10.9350 C.3      69  POP63      -0.0531
  8482 H8X        -24.5390    15.8440    10.8910 H        69  POP63       0.0265
  8483 H8Y        -24.8900    14.3530     9.9740 H        69  POP63       0.0265
  8484 C39        -22.8690    14.4590    10.8870 C.3      69  POP63      -0.0531
  8485 H9X        -22.6470    13.3770    10.9860 H        69  POP63       0.0265
  8486 H9Y        -22.4030    14.9520    11.7430 H        69  POP63       0.0265
  8487 C310       -22.1620    14.8450     9.6070 C.3      69  POP63      -0.0531
  8488 H10X       -22.3020    15.9340     9.6170 H        69  POP63       0.0265
  8489 H10Y       -22.7450    14.4470     8.7720 H        69  POP63       0.0265
  8490 C311       -20.6360    14.5020     9.7500 C.3      69  POP63      -0.0531
  8491 H11X       -20.5870    13.4280    10.1170 H        69  POP63       0.0265
  8492 H11Y       -20.0340    15.0920    10.4270 H        69  POP63       0.0265
  8493 C312       -19.8700    14.5320     8.4410 C.3      69  POP63      -0.0531
  8494 H12X       -18.8760    14.1220     8.6760 H        69  POP63       0.0265
  8495 H12Y       -19.8170    15.5720     8.0480 H        69  POP63       0.0265
  8496 C313       -20.5440    13.6340     7.3610 C.3      69  POP63      -0.0531
  8497 H13X       -20.0590    13.8650     6.4490 H        69  POP63       0.0265
  8498 H13Y       -21.6870    13.9430     7.1560 H        69  POP63       0.0265
  8499 C314       -20.4250    12.1340     7.6580 C.3      69  POP63      -0.0533
  8500 H14X       -21.0920    11.8630     8.5360 H        69  POP63       0.0265
  8501 H14Y       -19.4370    11.9230     8.1050 H        69  POP63       0.0265
  8502 C315       -20.7810    11.2070     6.4950 C.3      69  POP63      -0.0559
  8503 H15X       -20.9200    10.2450     6.9700 H        69  POP63       0.0263
  8504 H15Y       -19.9840    11.2950     5.7350 H        69  POP63       0.0263
  8505 C316       -22.1310    11.5100     5.8800 C.3      69  POP63      -0.0653
  8506 H16X       -22.9570    11.3530     6.6630 H        69  POP63       0.0230
  8507 H16Y       -22.3240    10.9140     4.9530 H        69  POP63       0.0230
  8508 H16Z       -22.2440    12.6390     5.6170 H        69  POP63       0.0230
  8509 N           26.4350     3.7530    20.1210 N.3      70  POP64       0.2385
  8510 C12         26.6510     2.5450    19.1950 C.3      70  POP64      -0.0064
  8511 H12A        26.4410     1.6070    19.7690 H        70  POP64       0.0838
  8512 H12B        27.6710     2.4450    18.8800 H        70  POP64       0.0838
  8513 C13         26.9680     4.9690    19.5080 C.3      70  POP64      -0.0417
  8514 H13A        26.7190     5.8680    20.0250 H        70  POP64       0.0778
  8515 H13B        27.9830     4.8670    19.2350 H        70  POP64       0.0778
  8516 H13C        26.3540     5.1490    18.5380 H        70  POP64       0.0778
  8517 C14         24.9790     3.9970    20.4360 C.3      70  POP64      -0.0417
  8518 H14A        24.8700     4.8220    21.0830 H        70  POP64       0.0778
  8519 H14B        24.3340     4.0280    19.5280 H        70  POP64       0.0778
  8520 H14C        24.5490     3.1250    20.9880 H        70  POP64       0.0778
  8521 C15         27.1920     3.6520    21.4630 C.3      70  POP64      -0.0417
  8522 H15A        28.2500     3.5920    21.2340 H        70  POP64       0.0778
  8523 H15B        26.8350     2.7670    21.8490 H        70  POP64       0.0778
  8524 H15C        26.9380     4.5100    22.0790 H        70  POP64       0.0778
  8525 C11         25.8120     2.5500    17.9530 C.3      70  POP64       0.0954
  8526 H11A        26.2150     1.9340    17.1200 H        70  POP64       0.0618
  8527 H11B        25.8840     3.5600    17.4380 H        70  POP64       0.0618
  8528 P           23.9940     0.8240    18.6820 P.3      70  POP64       0.2645
  8529 O13         22.5560     0.7740    19.0600 O.co2    70  POP64      -0.5105
  8530 O14         24.9460     0.2670    19.6510 O.co2    70  POP64      -0.5105
  8531 O12         24.3860     2.3560    18.2260 O.3      70  POP64      -0.3154
  8532 O11         24.2030     0.1330    17.3210 O.3      70  POP64      -0.3181
  8533 C1          23.5690     0.6250    16.1420 C.3      70  POP64       0.0845
  8534 HA          24.2310     1.2970    15.5280 H        70  POP64       0.0591
  8535 HB          22.6450     1.1530    16.4010 H        70  POP64       0.0591
  8536 C2          23.1080    -0.5490    15.2760 C.3      70  POP64       0.1155
  8537 HS          24.0000    -1.2000    15.1220 H        70  POP64       0.0649
  8538 O21         22.6160    -0.0340    14.0440 O.3      70  POP64      -0.3072
  8539 C21         22.7280    -0.8880    12.9950 C.2      70  POP64       0.2626
  8540 O22         23.1110    -2.0280    13.0960 O.2      70  POP64      -0.2650
  8541 C22         22.3810    -0.1250    11.7270 C.3      70  POP64       0.0332
  8542 H2R         22.0070     0.9380    11.9880 H        70  POP64       0.0366
  8543 H2S         21.7070    -0.7420    11.1440 H        70  POP64       0.0366
  8544 C3          22.0510    -1.4480    16.0320 C.3      70  POP64       0.0860
  8545 HX          21.0940    -0.8980    16.1230 H        70  POP64       0.0593
  8546 HY          22.4140    -1.7470    16.9880 H        70  POP64       0.0593
  8547 O31         21.6140    -2.5830    15.3000 O.3      70  POP64      -0.3125
  8548 C31         22.2730    -3.6760    15.4960 C.2      70  POP64       0.2622
  8549 O32         23.1370    -3.8060    16.2980 O.2      70  POP64      -0.2650
  8550 C32         21.5880    -4.7960    14.7300 C.3      70  POP64       0.0332
  8551 H2X         21.4910    -4.6970    13.6870 H        70  POP64       0.0366
  8552 H2Y         20.4610    -4.9200    15.0780 H        70  POP64       0.0366
  8553 C23         23.6920     0.1900    10.8020 C.3      70  POP64      -0.0441
  8554 H3R         24.1330    -0.8060    10.6240 H        70  POP64       0.0270
  8555 H3S         24.4300     0.8230    11.3310 H        70  POP64       0.0270
  8556 C24         23.2240     0.7520     9.4800 C.3      70  POP64      -0.0526
  8557 H4R         22.8700     1.7690     9.7450 H        70  POP64       0.0265
  8558 H4S         22.3570     0.1450     9.2440 H        70  POP64       0.0265
  8559 C25         24.1290     0.7160     8.2820 C.3      70  POP64      -0.0530
  8560 H5R         24.3800    -0.3720     8.1330 H        70  POP64       0.0265
  8561 H5S         25.0960     1.3500     8.5510 H        70  POP64       0.0265
  8562 C26         23.5370     1.2970     7.0290 C.3      70  POP64      -0.0528
  8563 H6R         23.1510     2.3710     7.1770 H        70  POP64       0.0265
  8564 H6S         22.6030     0.6720     6.8130 H        70  POP64       0.0265
  8565 C27         24.4000     1.2610     5.7860 C.3      70  POP64      -0.0496
  8566 H7R         24.4000     0.1500     5.6140 H        70  POP64       0.0268
  8567 H7S         25.4630     1.5720     6.0660 H        70  POP64       0.0268
  8568 C28         23.7890     2.0520     4.5490 C.3      70  POP64      -0.0348
  8569 H8R         23.6090     3.0770     4.8400 H        70  POP64       0.0307
  8570 H8S         22.7950     1.5910     4.3380 H        70  POP64       0.0307
  8571 C29         24.5670     2.1030     3.2660 C.2      70  POP64      -0.0879
  8572 H91         24.0410     1.7450     2.3810 H        70  POP64       0.0569
  8573 C210        25.8920     2.3420     3.0890 C.2      70  POP64      -0.0879
  8574 H101        26.2760     2.0270     2.0730 H        70  POP64       0.0569
  8575 C211        26.8670     2.7010     4.1910 C.3      70  POP64      -0.0348
  8576 H11R        27.3600     1.7270     4.4990 H        70  POP64       0.0307
  8577 H11S        26.3560     3.0900     5.0620 H        70  POP64       0.0307
  8578 C212        27.8860     3.7560     3.7070 C.3      70  POP64      -0.0496
  8579 H12R        28.2960     3.5170     2.7420 H        70  POP64       0.0268
  8580 H12S        28.6280     3.6900     4.4890 H        70  POP64       0.0268
  8581 C213        27.2760     5.1900     3.7460 C.3      70  POP64      -0.0528
  8582 H13R        27.0010     5.3310     4.8230 H        70  POP64       0.0265
  8583 H13S        26.3650     5.2590     3.1830 H        70  POP64       0.0265
  8584 C214        28.2300     6.3650     3.3890 C.3      70  POP64      -0.0530
  8585 H14R        28.6230     6.2250     2.3740 H        70  POP64       0.0265
  8586 H14S        29.0580     6.4140     4.1930 H        70  POP64       0.0265
  8587 C215        27.6010     7.8010     3.4800 C.3      70  POP64      -0.0531
  8588 H15R        26.6730     7.8660     2.8350 H        70  POP64       0.0265
  8589 H15S        28.3050     8.5100     3.0550 H        70  POP64       0.0265
  8590 C216        27.1170     8.1820     4.9360 C.3      70  POP64      -0.0533
  8591 H16R        27.9390     8.4490     5.6360 H        70  POP64       0.0265
  8592 H16S        26.5780     7.2710     5.4080 H        70  POP64       0.0265
  8593 C217        26.0610     9.3360     4.9290 C.3      70  POP64      -0.0559
  8594 H17R        25.9960     9.6280     6.0240 H        70  POP64       0.0263
  8595 H17S        25.0490     9.0090     4.6190 H        70  POP64       0.0263
  8596 C218        26.4320    10.5940     4.1790 C.3      70  POP64      -0.0653
  8597 H18R        26.1900    10.5560     3.1500 H        70  POP64       0.0230
  8598 H18S        27.4760    10.7180     4.2720 H        70  POP64       0.0230
  8599 H18T        25.8200    11.4620     4.4900 H        70  POP64       0.0230
  8600 C33         22.2140    -6.2120    15.0810 C.3      70  POP64      -0.0441
  8601 H3X         22.0950    -6.3820    16.2420 H        70  POP64       0.0270
  8602 H3Y         23.2600    -6.3060    14.7970 H        70  POP64       0.0270
  8603 C34         21.3590    -7.2420    14.3630 C.3      70  POP64      -0.0526
  8604 H4X         20.3240    -7.1760    14.7040 H        70  POP64       0.0265
  8605 H4Y         21.8400    -8.1560    14.7800 H        70  POP64       0.0265
  8606 C35         21.2850    -7.2470    12.7840 C.3      70  POP64      -0.0530
  8607 H5X         22.2820    -7.3900    12.4180 H        70  POP64       0.0265
  8608 H5Y         20.8450    -6.2690    12.4300 H        70  POP64       0.0265
  8609 C36         20.4040    -8.4300    12.3220 C.3      70  POP64      -0.0531
  8610 H6X         19.4920    -8.5340    12.9870 H        70  POP64       0.0265
  8611 H6Y         21.0730    -9.2800    12.6110 H        70  POP64       0.0265
  8612 C37         20.0450    -8.3930    10.8040 C.3      70  POP64      -0.0531
  8613 H7X         19.8230    -9.4170    10.3920 H        70  POP64       0.0265
  8614 H7Y         20.9610    -7.8970    10.3590 H        70  POP64       0.0265
  8615 C38         18.8500    -7.6010    10.4820 C.3      70  POP64      -0.0531
  8616 H8X         18.9480    -6.5110    10.7380 H        70  POP64       0.0265
  8617 H8Y         18.0170    -7.9620    11.0770 H        70  POP64       0.0265
  8618 C39         18.4760    -7.7360     8.9790 C.3      70  POP64      -0.0531
  8619 H9X         17.9640    -8.7590     8.8040 H        70  POP64       0.0265
  8620 H9Y         19.4000    -7.7670     8.3660 H        70  POP64       0.0265
  8621 C310        17.6310    -6.6520     8.3370 C.3      70  POP64      -0.0531
  8622 H10X        18.2570    -5.7210     8.3350 H        70  POP64       0.0265
  8623 H10Y        16.7560    -6.5110     9.0470 H        70  POP64       0.0265
  8624 C311        17.0320    -6.9950     6.9420 C.3      70  POP64      -0.0531
  8625 H11X        16.7380    -8.0690     6.9460 H        70  POP64       0.0265
  8626 H11Y        17.8530    -6.9680     6.1690 H        70  POP64       0.0265
  8627 C312        15.9610    -6.0300     6.4670 C.3      70  POP64      -0.0531
  8628 H12X        15.9020    -5.0000     6.9340 H        70  POP64       0.0265
  8629 H12Y        14.9350    -6.4940     6.7310 H        70  POP64       0.0265
  8630 C313        15.9720    -5.6720     4.9900 C.3      70  POP64      -0.0531
  8631 H13X        14.8780    -5.3680     4.7350 H        70  POP64       0.0265
  8632 H13Y        16.2530    -6.5730     4.4070 H        70  POP64       0.0265
  8633 C314        16.9790    -4.5750     4.6040 C.3      70  POP64      -0.0533
  8634 H14X        17.8760    -4.7450     5.1830 H        70  POP64       0.0265
  8635 H14Y        16.5020    -3.5990     4.8400 H        70  POP64       0.0265
  8636 C315        17.1230    -4.5490     3.0650 C.3      70  POP64      -0.0559
  8637 H15X        16.1030    -4.4040     2.6260 H        70  POP64       0.0263
  8638 H15Y        17.4070    -5.6330     2.7620 H        70  POP64       0.0263
  8639 C316        18.1640    -3.5010     2.6610 C.3      70  POP64      -0.0653
  8640 H16X        18.2250    -3.4630     1.5020 H        70  POP64       0.0230
  8641 H16Y        19.1520    -3.6780     2.9430 H        70  POP64       0.0230
  8642 H16Z        17.8860    -2.4240     3.0100 H        70  POP64       0.0230
  8643 N          -27.2840    21.0080    22.1880 N.3      71  POP65       0.2385
  8644 C12        -26.9650    20.9810    20.6310 C.3      71  POP65      -0.0064
  8645 H12A       -25.9250    21.2850    20.5260 H        71  POP65       0.0838
  8646 H12B       -27.5700    21.7890    20.1900 H        71  POP65       0.0838
  8647 C13        -26.7910    22.2490    22.7610 C.3      71  POP65      -0.0417
  8648 H13A       -27.3060    23.0370    22.2780 H        71  POP65       0.0778
  8649 H13B       -26.9850    22.4240    23.8850 H        71  POP65       0.0778
  8650 H13C       -25.7220    22.5320    22.5720 H        71  POP65       0.0778
  8651 C14        -28.7510    21.0120    22.4180 C.3      71  POP65      -0.0417
  8652 H14A       -28.9100    20.9830    23.4940 H        71  POP65       0.0778
  8653 H14B       -29.2330    21.9340    22.0390 H        71  POP65       0.0778
  8654 H14C       -29.2470    20.1430    22.0730 H        71  POP65       0.0778
  8655 C15        -26.6450    19.8420    22.8990 C.3      71  POP65      -0.0417
  8656 H15A       -27.0490    18.9290    22.4420 H        71  POP65       0.0778
  8657 H15B       -27.0200    19.7320    23.9200 H        71  POP65       0.0778
  8658 H15C       -25.5990    19.8480    22.7300 H        71  POP65       0.0778
  8659 C11        -27.3600    19.6870    19.9190 C.3      71  POP65       0.0954
  8660 H11A       -26.5460    18.9610    20.2780 H        71  POP65       0.0618
  8661 H11B       -27.0140    19.8000    18.8440 H        71  POP65       0.0618
  8662 P          -29.7910    20.0040    19.1900 P.3      71  POP65       0.2645
  8663 O13        -29.7080    21.4600    19.2650 O.co2    71  POP65      -0.5105
  8664 O14        -31.1240    19.3720    19.4040 O.co2    71  POP65      -0.5105
  8665 O12        -28.7440    19.3190    20.1070 O.3      71  POP65      -0.3154
  8666 O11        -29.2560    19.5320    17.8250 O.3      71  POP65      -0.3181
  8667 C1         -29.0140    18.1160    17.7100 C.3      71  POP65       0.0845
  8668 HA         -29.7060    17.4300    18.2970 H        71  POP65       0.0591
  8669 HB         -27.9840    17.9050    18.0480 H        71  POP65       0.0591
  8670 C2         -29.2550    17.6150    16.2540 C.3      71  POP65       0.1155
  8671 HS         -29.2080    16.4410    16.1870 H        71  POP65       0.0649
  8672 O21        -28.2340    18.2680    15.3930 O.3      71  POP65      -0.3072
  8673 C21        -27.1070    17.5990    15.3030 C.2      71  POP65       0.2626
  8674 O22        -26.8680    16.5430    15.8860 O.2      71  POP65      -0.2650
  8675 C22        -26.1230    18.2670    14.3180 C.3      71  POP65       0.0332
  8676 H2R        -25.3600    17.4970    14.2350 H        71  POP65       0.0366
  8677 H2S        -25.6730    19.1220    14.7770 H        71  POP65       0.0366
  8678 C3         -30.6230    18.1280    15.7550 C.3      71  POP65       0.0860
  8679 HX         -30.7200    19.2290    16.0450 H        71  POP65       0.0593
  8680 HY         -31.4360    17.6560    16.2630 H        71  POP65       0.0593
  8681 O31        -30.7240    17.7410    14.3520 O.3      71  POP65      -0.3125
  8682 C31        -30.3500    18.6580    13.5000 C.2      71  POP65       0.2622
  8683 O32        -29.7830    19.6900    13.7560 O.2      71  POP65      -0.2650
  8684 C32        -30.4760    18.1160    12.0970 C.3      71  POP65       0.0332
  8685 H2X        -31.3540    17.4140    12.0170 H        71  POP65       0.0366
  8686 H2Y        -29.6770    17.4400    11.9440 H        71  POP65       0.0366
  8687 C23        -26.7710    18.3820    12.9280 C.3      71  POP65      -0.0441
  8688 H3R        -27.6230    19.1430    12.9710 H        71  POP65       0.0270
  8689 H3S        -27.2060    17.4720    12.6300 H        71  POP65       0.0270
  8690 C24        -25.7440    18.9170    11.9540 C.3      71  POP65      -0.0526
  8691 H4R        -24.8470    18.4230    12.2640 H        71  POP65       0.0265
  8692 H4S        -25.5500    20.0210    12.1450 H        71  POP65       0.0265
  8693 C25        -26.2170    18.8000    10.5050 C.3      71  POP65      -0.0530
  8694 H5R        -27.2240    19.1950    10.4410 H        71  POP65       0.0265
  8695 H5S        -26.4000    17.6840    10.4930 H        71  POP65       0.0265
  8696 C26        -25.1830    19.1280     9.5130 C.3      71  POP65      -0.0528
  8697 H6R        -24.1500    18.6830     9.7180 H        71  POP65       0.0265
  8698 H6S        -24.8980    20.1110     9.4520 H        71  POP65       0.0265
  8699 C27        -25.4920    18.5620     8.0190 C.3      71  POP65      -0.0496
  8700 H7R        -26.4910    18.9600     7.7070 H        71  POP65       0.0268
  8701 H7S        -25.4290    17.4050     8.0310 H        71  POP65       0.0268
  8702 C28        -24.4140    19.1010     6.9860 C.3      71  POP65      -0.0348
  8703 H8R        -24.8040    20.1320     6.6680 H        71  POP65       0.0307
  8704 H8S        -24.4060    18.3600     6.1490 H        71  POP65       0.0307
  8705 C29        -22.9610    19.2270     7.4100 C.2      71  POP65      -0.0879
  8706 H91        -22.7030    19.2530     8.5770 H        71  POP65       0.0569
  8707 C210       -21.9110    19.0110     6.5780 C.2      71  POP65      -0.0879
  8708 H101       -21.0040    18.9190     7.0680 H        71  POP65       0.0569
  8709 C211       -22.1510    18.7600     5.1230 C.3      71  POP65      -0.0348
  8710 H11R       -23.0820    19.2380     4.7830 H        71  POP65       0.0307
  8711 H11S       -22.2120    17.6600     5.0010 H        71  POP65       0.0307
  8712 C212       -20.9000    19.1150     4.2000 C.3      71  POP65      -0.0496
  8713 H12R       -20.3520    18.1880     3.8830 H        71  POP65       0.0268
  8714 H12S       -20.1960    19.7530     4.7030 H        71  POP65       0.0268
  8715 C213       -21.3270    19.9060     2.9500 C.3      71  POP65      -0.0528
  8716 H13R       -22.0420    19.3640     2.3910 H        71  POP65       0.0265
  8717 H13S       -20.4130    20.0270     2.2370 H        71  POP65       0.0265
  8718 C214       -21.7290    21.4200     3.2300 C.3      71  POP65      -0.0530
  8719 H14R       -20.8760    21.7050     3.9800 H        71  POP65       0.0265
  8720 H14S       -22.6370    21.4540     3.7570 H        71  POP65       0.0265
  8721 C215       -21.6470    22.3490     2.0090 C.3      71  POP65      -0.0531
  8722 H15R       -20.8060    21.9040     1.3970 H        71  POP65       0.0265
  8723 H15S       -21.3090    23.3300     2.3950 H        71  POP65       0.0265
  8724 C216       -22.9030    22.5470     1.2090 C.3      71  POP65      -0.0533
  8725 H16R       -22.5370    23.1910     0.3510 H        71  POP65       0.0265
  8726 H16S       -23.6100    23.1110     1.8910 H        71  POP65       0.0265
  8727 C217       -23.5390    21.1890     0.7810 C.3      71  POP65      -0.0559
  8728 H17R       -23.8030    20.6310     1.6190 H        71  POP65       0.0263
  8729 H17S       -22.7680    20.6340     0.1720 H        71  POP65       0.0263
  8730 C218       -24.8040    21.3690    -0.1010 C.3      71  POP65      -0.0653
  8731 H18R       -24.4720    21.6930    -1.1240 H        71  POP65       0.0230
  8732 H18S       -25.5490    22.0050     0.3780 H        71  POP65       0.0230
  8733 H18T       -25.2220    20.3750    -0.4240 H        71  POP65       0.0230
  8734 C33        -30.3110    19.0420    10.8990 C.3      71  POP65      -0.0441
  8735 H3X        -29.5420    19.7360    11.1530 H        71  POP65       0.0270
  8736 H3Y        -31.2580    19.5750    10.5860 H        71  POP65       0.0270
  8737 C34        -29.8840    18.2600     9.6620 C.3      71  POP65      -0.0526
  8738 H4X        -30.5780    17.4380     9.4840 H        71  POP65       0.0265
  8739 H4Y        -28.8670    17.8670     9.8440 H        71  POP65       0.0265
  8740 C35        -29.6710    19.1910     8.4390 C.3      71  POP65      -0.0530
  8741 H5X        -28.8900    19.9730     8.7560 H        71  POP65       0.0265
  8742 H5Y        -30.6370    19.6670     8.2070 H        71  POP65       0.0265
  8743 C36        -29.1980    18.3690     7.2770 C.3      71  POP65      -0.0531
  8744 H6X        -29.9620    17.5530     7.0570 H        71  POP65       0.0265
  8745 H6Y        -28.4110    17.6140     7.4620 H        71  POP65       0.0265
  8746 C37        -28.9150    19.3700     6.1420 C.3      71  POP65      -0.0531
  8747 H7X        -27.9540    19.9700     6.2840 H        71  POP65       0.0265
  8748 H7Y        -29.7930    20.0990     6.0800 H        71  POP65       0.0265
  8749 C38        -28.8460    18.8270     4.8320 C.3      71  POP65      -0.0531
  8750 H8X        -29.9160    18.3850     4.4830 H        71  POP65       0.0265
  8751 H8Y        -28.0930    18.0020     4.8430 H        71  POP65       0.0265
  8752 C39        -28.4870    19.8330     3.7450 C.3      71  POP65      -0.0531
  8753 H9X        -27.4630    20.2970     3.8930 H        71  POP65       0.0265
  8754 H9Y        -29.2290    20.6270     3.9030 H        71  POP65       0.0265
  8755 C310       -28.5980    19.3190     2.3320 C.3      71  POP65      -0.0531
  8756 H10X       -29.4960    18.6970     2.1810 H        71  POP65       0.0265
  8757 H10Y       -27.7510    18.5940     2.1750 H        71  POP65       0.0265
  8758 C311       -28.5230    20.5350     1.3560 C.3      71  POP65      -0.0531
  8759 H11X       -27.5310    20.9930     1.4880 H        71  POP65       0.0265
  8760 H11Y       -29.1780    21.3190     1.6590 H        71  POP65       0.0265
  8761 C312       -28.8000    20.0970    -0.1410 C.3      71  POP65      -0.0531
  8762 H12X       -29.8640    19.8100    -0.1930 H        71  POP65       0.0265
  8763 H12Y       -28.2450    19.1800    -0.4540 H        71  POP65       0.0265
  8764 C313       -28.6680    21.2410    -1.2180 C.3      71  POP65      -0.0531
  8765 H13X       -27.6560    21.5910    -1.1450 H        71  POP65       0.0265
  8766 H13Y       -29.3510    22.0360    -0.8660 H        71  POP65       0.0265
  8767 C314       -29.2400    20.7770    -2.6110 C.3      71  POP65      -0.0533
  8768 H14X       -30.2540    20.3180    -2.5760 H        71  POP65       0.0265
  8769 H14Y       -28.6150    19.9020    -2.9990 H        71  POP65       0.0265
  8770 C315       -29.1040    21.8360    -3.8020 C.3      71  POP65      -0.0559
  8771 H15X       -29.4850    21.3160    -4.7660 H        71  POP65       0.0263
  8772 H15Y       -27.9980    22.0820    -4.0240 H        71  POP65       0.0263
  8773 C316       -29.8890    23.1280    -3.5310 C.3      71  POP65      -0.0653
  8774 H16X       -30.9810    23.0790    -3.7050 H        71  POP65       0.0230
  8775 H16Y       -29.5350    23.9910    -4.1680 H        71  POP65       0.0230
  8776 H16Z       -29.6880    23.4950    -2.4920 H        71  POP65       0.0230
  8777 N          -20.9710    -0.8950    28.7920 N.3      72  POP66       0.2385
  8778 C12        -21.5010    -0.4560    27.4180 C.3      72  POP66      -0.0064
  8779 H12A       -21.4320     0.6650    27.3820 H        72  POP66       0.0838
  8780 H12B       -22.5900    -0.6190    27.4130 H        72  POP66       0.0838
  8781 C13        -21.6080     0.0200    29.9020 C.3      72  POP66      -0.0417
  8782 H13A       -22.6620    -0.0570    29.8560 H        72  POP66       0.0778
  8783 H13B       -21.3370    -0.3110    30.9290 H        72  POP66       0.0778
  8784 H13C       -21.4400     1.0420    29.7120 H        72  POP66       0.0778
  8785 C14        -21.2730    -2.3160    29.0140 C.3      72  POP66      -0.0417
  8786 H14A       -21.1810    -2.6150    30.0560 H        72  POP66       0.0778
  8787 H14B       -22.2690    -2.5920    28.7300 H        72  POP66       0.0778
  8788 H14C       -20.6650    -3.0030    28.3610 H        72  POP66       0.0778
  8789 C15        -19.5390    -0.6300    28.7480 C.3      72  POP66      -0.0417
  8790 H15A       -19.2960     0.4080    28.3700 H        72  POP66       0.0778
  8791 H15B       -19.0210    -1.2460    28.0040 H        72  POP66       0.0778
  8792 H15C       -19.1090    -0.7360    29.7470 H        72  POP66       0.0778
  8793 C11        -20.8700    -1.0520    26.1480 C.3      72  POP66       0.0954
  8794 H11A       -19.8430    -0.6070    25.9270 H        72  POP66       0.0618
  8795 H11B       -21.3690    -0.6230    25.2510 H        72  POP66       0.0618
  8796 P          -21.6930    -3.3520    25.2180 P.3      72  POP66       0.2645
  8797 O13        -23.0700    -2.8310    25.2000 O.co2    72  POP66      -0.5105
  8798 O14        -21.5610    -4.7620    25.6850 O.co2    72  POP66      -0.5105
  8799 O12        -20.7530    -2.4730    26.1300 O.3      72  POP66      -0.3154
  8800 O11        -21.2120    -3.2590    23.7200 O.3      72  POP66      -0.3181
  8801 C1         -19.8580    -3.1340    23.5190 C.3      72  POP66       0.0845
  8802 HA         -19.3090    -4.0370    23.7660 H        72  POP66       0.0591
  8803 HB         -19.3390    -2.2560    24.0900 H        72  POP66       0.0591
  8804 C2         -19.5060    -2.8240    21.9940 C.3      72  POP66       0.1155
  8805 HS         -18.4240    -2.7420    21.9130 H        72  POP66       0.0649
  8806 O21        -20.2060    -1.7230    21.4430 O.3      72  POP66      -0.3072
  8807 C21        -19.7100    -0.5850    21.7440 C.2      72  POP66       0.2626
  8808 O22        -18.7490    -0.3870    22.4580 O.2      72  POP66      -0.2650
  8809 C22        -20.5860     0.4890    21.1110 C.3      72  POP66       0.0332
  8810 H2R        -20.2290     1.4590    21.5950 H        72  POP66       0.0366
  8811 H2S        -21.6340     0.3440    21.4030 H        72  POP66       0.0366
  8812 C3         -19.9830    -3.9940    21.0960 C.3      72  POP66       0.0860
  8813 HX         -21.0450    -4.0050    21.0400 H        72  POP66       0.0593
  8814 HY         -19.7220    -4.9720    21.5340 H        72  POP66       0.0593
  8815 O31        -19.3870    -3.8790    19.7900 O.3      72  POP66      -0.3125
  8816 C31        -18.0370    -4.1020    19.7340 C.2      72  POP66       0.2622
  8817 O32        -17.3860    -4.4370    20.7190 O.2      72  POP66      -0.2650
  8818 C32        -17.4710    -3.7130    18.3470 C.3      72  POP66       0.0332
  8819 H2X        -16.4220    -3.9350    18.3730 H        72  POP66       0.0366
  8820 H2Y        -17.5900    -2.6170    18.1280 H        72  POP66       0.0366
  8821 C23        -20.6000     0.5020    19.5490 C.3      72  POP66      -0.0441
  8822 H3R        -21.3630     1.2470    19.2270 H        72  POP66       0.0270
  8823 H3S        -20.9540    -0.4660    19.1860 H        72  POP66       0.0270
  8824 C24        -19.3500     0.7990    18.8080 C.3      72  POP66      -0.0526
  8825 H4R        -18.5440     0.0740    19.1140 H        72  POP66       0.0265
  8826 H4S        -19.0770     1.8120    19.0620 H        72  POP66       0.0265
  8827 C25        -19.5220     0.5090    17.3370 C.3      72  POP66      -0.0530
  8828 H5R        -20.5200     1.0940    17.1730 H        72  POP66       0.0265
  8829 H5S        -19.7160    -0.5430    17.0190 H        72  POP66       0.0265
  8830 C26        -18.4310     1.0290    16.4020 C.3      72  POP66      -0.0528
  8831 H6R        -17.6100     0.2920    16.1640 H        72  POP66       0.0265
  8832 H6S        -17.9350     1.8730    16.8680 H        72  POP66       0.0265
  8833 C27        -18.9720     1.2980    14.9730 C.3      72  POP66      -0.0496
  8834 H7R        -19.8880     1.9770    14.9780 H        72  POP66       0.0268
  8835 H7S        -19.2280     0.3040    14.5090 H        72  POP66       0.0268
  8836 C28        -17.8440     1.7970    14.0690 C.3      72  POP66      -0.0348
  8837 H8R        -16.8740     1.2260    14.2460 H        72  POP66       0.0307
  8838 H8S        -17.8060     2.8630    14.4480 H        72  POP66       0.0307
  8839 C29        -18.1890     1.7220    12.5760 C.2      72  POP66      -0.0879
  8840 H91        -18.6150     0.7990    12.1180 H        72  POP66       0.0569
  8841 C210       -18.0910     2.7170    11.6820 C.2      72  POP66      -0.0879
  8842 H101       -18.3990     2.5740    10.6410 H        72  POP66       0.0569
  8843 C211       -17.6230     4.0920    12.0010 C.3      72  POP66      -0.0348
  8844 H11R       -16.7450     4.3240    11.3120 H        72  POP66       0.0307
  8845 H11S       -17.2300     4.3090    13.0550 H        72  POP66       0.0307
  8846 C212       -18.7600     5.1830    11.7810 C.3      72  POP66      -0.0496
  8847 H12R       -19.6340     4.7560    12.3360 H        72  POP66       0.0268
  8848 H12S       -19.0080     5.2650    10.7260 H        72  POP66       0.0268
  8849 C213       -18.3640     6.6510    12.1850 C.3      72  POP66      -0.0528
  8850 H13R       -19.2940     7.2560    11.9510 H        72  POP66       0.0265
  8851 H13S       -17.5160     7.0810    11.5820 H        72  POP66       0.0265
  8852 C214       -18.0380     6.7880    13.6780 C.3      72  POP66      -0.0530
  8853 H14R       -17.8970     7.8810    13.9140 H        72  POP66       0.0265
  8854 H14S       -17.1420     6.2530    13.9750 H        72  POP66       0.0265
  8855 C215       -19.1560     6.3760    14.6380 C.3      72  POP66      -0.0531
  8856 H15R       -19.2130     5.2630    14.6840 H        72  POP66       0.0265
  8857 H15S       -20.1420     6.8510    14.3810 H        72  POP66       0.0265
  8858 C216       -18.9430     6.9310    16.1000 C.3      72  POP66      -0.0533
  8859 H16R       -19.1720     8.0090    16.1230 H        72  POP66       0.0265
  8860 H16S       -17.8640     6.7960    16.4350 H        72  POP66       0.0265
  8861 C217       -19.8540     6.3330    17.1430 C.3      72  POP66      -0.0559
  8862 H17R       -20.9300     6.5350    17.0150 H        72  POP66       0.0263
  8863 H17S       -19.6110     6.8820    18.0200 H        72  POP66       0.0263
  8864 C218       -19.9010     4.8170    17.3780 C.3      72  POP66      -0.0653
  8865 H18R       -20.0810     4.2720    16.4550 H        72  POP66       0.0230
  8866 H18S       -20.6600     4.6470    18.1170 H        72  POP66       0.0230
  8867 H18T       -18.9280     4.4850    17.8330 H        72  POP66       0.0230
  8868 C33        -18.0560    -4.4950    17.1420 C.3      72  POP66      -0.0441
  8869 H3X        -19.1490    -4.2540    17.0620 H        72  POP66       0.0270
  8870 H3Y        -17.9530    -5.5690    17.3420 H        72  POP66       0.0270
  8871 C34        -17.1720    -4.2590    15.9230 C.3      72  POP66      -0.0526
  8872 H4X        -16.0750    -4.3540    16.2120 H        72  POP66       0.0265
  8873 H4Y        -17.3390    -3.1720    15.6350 H        72  POP66       0.0265
  8874 C35        -17.4460    -5.0620    14.6430 C.3      72  POP66      -0.0530
  8875 H5X        -18.5140    -4.9600    14.4310 H        72  POP66       0.0265
  8876 H5Y        -17.2480    -6.0820    14.8990 H        72  POP66       0.0265
  8877 C36        -16.6350    -4.6270    13.3990 C.3      72  POP66      -0.0531
  8878 H6X        -15.5760    -4.7540    13.8200 H        72  POP66       0.0265
  8879 H6Y        -16.8670    -3.6220    13.1000 H        72  POP66       0.0265
  8880 C37        -16.6520    -5.7210    12.2080 C.3      72  POP66      -0.0531
  8881 H7X        -17.7380    -5.8350    12.0240 H        72  POP66       0.0265
  8882 H7Y        -16.2100    -6.6250    12.5790 H        72  POP66       0.0265
  8883 C38        -15.9600    -5.2850    10.8870 C.3      72  POP66      -0.0531
  8884 H8X        -15.7010    -6.2100    10.3510 H        72  POP66       0.0265
  8885 H8Y        -15.0070    -4.7170    11.1330 H        72  POP66       0.0265
  8886 C39        -16.9680    -4.5350     9.9680 C.3      72  POP66      -0.0531
  8887 H9X        -17.0780    -3.5220    10.3560 H        72  POP66       0.0265
  8888 H9Y        -17.9510    -5.1220     9.9870 H        72  POP66       0.0265
  8889 C310       -16.6040    -4.4830     8.4780 C.3      72  POP66      -0.0531
  8890 H10X       -15.6620    -3.8330     8.4210 H        72  POP66       0.0265
  8891 H10Y       -17.4410    -3.9850     8.0030 H        72  POP66       0.0265
  8892 C311       -16.3300    -5.7990     7.7830 C.3      72  POP66      -0.0531
  8893 H11X       -17.0050    -6.7400     8.0170 H        72  POP66       0.0265
  8894 H11Y       -15.2340    -6.1770     7.8800 H        72  POP66       0.0265
  8895 C312       -16.3510    -5.6570     6.2260 C.3      72  POP66      -0.0531
  8896 H12X       -15.6640    -4.8670     5.9380 H        72  POP66       0.0265
  8897 H12Y       -17.4140    -5.4270     5.9170 H        72  POP66       0.0265
  8898 C313       -16.0010    -7.0280     5.5860 C.3      72  POP66      -0.0531
  8899 H13X       -16.7350    -7.8010     6.0150 H        72  POP66       0.0265
  8900 H13Y       -14.9570    -7.1910     5.9660 H        72  POP66       0.0265
  8901 C314       -15.8920    -6.9900     4.0440 C.3      72  POP66      -0.0533
  8902 H14X       -15.0760    -6.3330     3.7210 H        72  POP66       0.0265
  8903 H14Y       -16.7830    -6.7200     3.6200 H        72  POP66       0.0265
  8904 C315       -15.5990    -8.4830     3.6320 C.3      72  POP66      -0.0559
  8905 H15X       -16.4460    -9.1070     3.9720 H        72  POP66       0.0263
  8906 H15Y       -14.6970    -8.8230     4.1950 H        72  POP66       0.0263
  8907 C316       -15.2910    -8.6610     2.0660 C.3      72  POP66      -0.0653
  8908 H16X       -15.2830    -9.7020     1.7170 H        72  POP66       0.0230
  8909 H16Y       -14.3800    -8.1930     1.6600 H        72  POP66       0.0230
  8910 H16Z       -16.0870    -8.1220     1.6020 H        72  POP66       0.0230
  8911 N          -31.5610    -7.5810    19.8580 N.3      73  POP67       0.2385
  8912 C12        -32.4700    -7.6900    18.5630 C.3      73  POP67      -0.0064
  8913 H12A       -32.3200    -6.8260    17.9650 H        73  POP67       0.0838
  8914 H12B       -33.4810    -7.6610    18.9430 H        73  POP67       0.0838
  8915 C13        -31.8350    -8.6310    20.8430 C.3      73  POP67      -0.0417
  8916 H13A       -32.8310    -8.6190    21.3040 H        73  POP67       0.0778
  8917 H13B       -31.7140    -9.5940    20.3160 H        73  POP67       0.0778
  8918 H13C       -31.1550    -8.5060    21.7290 H        73  POP67       0.0778
  8919 C14        -30.1690    -7.6070    19.4060 C.3      73  POP67      -0.0417
  8920 H14A       -29.8210    -8.5660    19.0620 H        73  POP67       0.0778
  8921 H14B       -29.8890    -6.9600    18.5510 H        73  POP67       0.0778
  8922 H14C       -29.4750    -7.3490    20.1540 H        73  POP67       0.0778
  8923 C15        -31.8370    -6.2620    20.4420 C.3      73  POP67      -0.0417
  8924 H15A       -31.3940    -5.4620    19.8580 H        73  POP67       0.0778
  8925 H15B       -31.2690    -6.1880    21.4210 H        73  POP67       0.0778
  8926 H15C       -32.8210    -6.0720    20.5470 H        73  POP67       0.0778
  8927 C11        -32.2580    -8.8860    17.5940 C.3      73  POP67       0.0954
  8928 H11A       -31.1860    -8.9930    17.2860 H        73  POP67       0.0618
  8929 H11B       -32.8250    -8.7280    16.5980 H        73  POP67       0.0618
  8930 P          -33.9500   -10.8210    18.0430 P.3      73  POP67       0.2645
  8931 O13        -35.0350    -9.9890    18.6090 O.co2    73  POP67      -0.5105
  8932 O14        -33.8850   -12.1690    18.5720 O.co2    73  POP67      -0.5105
  8933 O12        -32.5860   -10.1520    18.2320 O.3      73  POP67      -0.3154
  8934 O11        -34.1470   -10.8960    16.4600 O.3      73  POP67      -0.3181
  8935 C1         -33.5850   -11.8420    15.5970 C.3      73  POP67       0.0845
  8936 HA         -34.2940   -11.9800    14.8160 H        73  POP67       0.0591
  8937 HB         -33.4230   -12.7880    16.0500 H        73  POP67       0.0591
  8938 C2         -32.3350   -11.2350    14.8500 C.3      73  POP67       0.1155
  8939 HS         -31.5560   -10.9540    15.5760 H        73  POP67       0.0649
  8940 O21        -32.8140   -10.0420    14.1930 O.3      73  POP67      -0.3072
  8941 C21        -31.9260    -9.1130    14.0910 C.2      73  POP67       0.2626
  8942 O22        -30.8470    -9.1420    14.6510 O.2      73  POP67      -0.2650
  8943 C22        -32.4910    -7.8980    13.3360 C.3      73  POP67       0.0332
  8944 H2R        -33.2170    -7.3990    14.0360 H        73  POP67       0.0366
  8945 H2S        -33.1250    -8.2620    12.4580 H        73  POP67       0.0366
  8946 C3         -31.8030   -12.2040    13.7670 C.3      73  POP67       0.0860
  8947 HX         -32.6150   -12.2370    13.0320 H        73  POP67       0.0593
  8948 HY         -31.5360   -13.2370    14.1760 H        73  POP67       0.0593
  8949 O31        -30.6860   -11.6440    13.0950 O.3      73  POP67      -0.3125
  8950 C31        -29.4600   -11.7530    13.6940 C.2      73  POP67       0.2622
  8951 O32        -29.2320   -12.1470    14.8370 O.2      73  POP67      -0.2650
  8952 C32        -28.3310   -11.4030    12.7180 C.3      73  POP67       0.0332
  8953 H2X        -27.8960   -10.4090    12.9090 H        73  POP67       0.0366
  8954 H2Y        -28.7370   -11.4100    11.7040 H        73  POP67       0.0366
  8955 C23        -31.3950    -7.0020    12.7570 C.3      73  POP67      -0.0441
  8956 H3R        -30.6300    -6.6200    13.5430 H        73  POP67       0.0270
  8957 H3S        -31.7200    -5.9820    12.4740 H        73  POP67       0.0270
  8958 C24        -30.6250    -7.6830    11.5840 C.3      73  POP67      -0.0526
  8959 H4R        -31.4410    -8.1580    11.0220 H        73  POP67       0.0265
  8960 H4S        -29.9850    -8.4210    12.0660 H        73  POP67       0.0265
  8961 C25        -29.9330    -6.6960    10.5840 C.3      73  POP67      -0.0530
  8962 H5R        -29.0530    -6.2530    11.0960 H        73  POP67       0.0265
  8963 H5S        -30.7670    -5.9760    10.3260 H        73  POP67       0.0265
  8964 C26        -29.4200    -7.3280     9.3020 C.3      73  POP67      -0.0528
  8965 H6R        -30.1720    -7.9580     8.7530 H        73  POP67       0.0265
  8966 H6S        -28.6950    -8.1140     9.6130 H        73  POP67       0.0265
  8967 C27        -28.7310    -6.3040     8.4180 C.3      73  POP67      -0.0496
  8968 H7R        -27.7670    -5.9480     8.9050 H        73  POP67       0.0268
  8969 H7S        -29.3500    -5.3100     8.5250 H        73  POP67       0.0268
  8970 C28        -28.5140    -6.7970     7.0190 C.3      73  POP67      -0.0348
  8971 H8R        -28.4470    -5.9710     6.2390 H        73  POP67       0.0307
  8972 H8S        -29.4760    -7.3660     6.7250 H        73  POP67       0.0307
  8973 C29        -27.4200    -7.8250     6.8680 C.2      73  POP67      -0.0879
  8974 H91        -27.7620    -8.7840     7.2590 H        73  POP67       0.0569
  8975 C210       -26.1440    -7.5820     6.4920 C.2      73  POP67      -0.0879
  8976 H101       -25.3120    -8.2910     6.4530 H        73  POP67       0.0569
  8977 C211       -25.6670    -6.2250     6.0190 C.3      73  POP67      -0.0348
  8978 H11R       -24.6070    -6.0500     6.3490 H        73  POP67       0.0307
  8979 H11S       -26.2620    -5.4280     6.5210 H        73  POP67       0.0307
  8980 C212       -25.6310    -6.0970     4.4590 C.3      73  POP67      -0.0496
  8981 H12R       -25.2420    -5.1170     4.1990 H        73  POP67       0.0268
  8982 H12S       -26.7190    -6.1590     4.0450 H        73  POP67       0.0268
  8983 C213       -24.7650    -7.0840     3.6600 C.3      73  POP67      -0.0528
  8984 H13R       -25.1970    -8.0640     3.7680 H        73  POP67       0.0265
  8985 H13S       -23.7080    -6.9470     4.1100 H        73  POP67       0.0265
  8986 C214       -24.7990    -6.6920     2.2080 C.3      73  POP67      -0.0530
  8987 H14R       -25.2340    -5.6420     2.1570 H        73  POP67       0.0265
  8988 H14S       -25.4940    -7.3000     1.5430 H        73  POP67       0.0265
  8989 C215       -23.3470    -6.6080     1.6470 C.3      73  POP67      -0.0531
  8990 H15R       -22.9360    -7.6590     1.8100 H        73  POP67       0.0265
  8991 H15S       -22.7580    -5.8170     2.2030 H        73  POP67       0.0265
  8992 C216       -23.4020    -6.3200     0.1270 C.3      73  POP67      -0.0533
  8993 H16R       -23.5350    -5.2330     0.0580 H        73  POP67       0.0265
  8994 H16S       -24.2110    -6.8500    -0.4150 H        73  POP67       0.0265
  8995 C217       -22.1350    -6.6850    -0.6560 C.3      73  POP67      -0.0559
  8996 H17R       -22.2980    -6.7030    -1.7310 H        73  POP67       0.0263
  8997 H17S       -21.7100    -7.7360    -0.3880 H        73  POP67       0.0263
  8998 C218       -20.9540    -5.7010    -0.4700 C.3      73  POP67      -0.0653
  8999 H18R       -20.2270    -5.8780    -1.2050 H        73  POP67       0.0230
  9000 H18S       -20.5010    -5.7320     0.5620 H        73  POP67       0.0230
  9001 H18T       -21.3420    -4.6720    -0.6250 H        73  POP67       0.0230
  9002 C33        -27.2190   -12.4930    12.9310 C.3      73  POP67      -0.0441
  9003 H3X        -26.8190   -12.5520    14.0190 H        73  POP67       0.0270
  9004 H3Y        -26.2500   -12.2200    12.4370 H        73  POP67       0.0270
  9005 C34        -27.7120   -13.8100    12.3630 C.3      73  POP67      -0.0526
  9006 H4X        -28.7240   -14.0460    12.6620 H        73  POP67       0.0265
  9007 H4Y        -27.0800   -14.5900    12.9040 H        73  POP67       0.0265
  9008 C35        -27.3980   -14.1610    10.8700 C.3      73  POP67      -0.0530
  9009 H5X        -26.3720   -14.0320    10.6400 H        73  POP67       0.0265
  9010 H5Y        -27.8530   -13.5000    10.0780 H        73  POP67       0.0265
  9011 C36        -27.7800   -15.5820    10.4340 C.3      73  POP67      -0.0531
  9012 H6X        -28.9350   -15.5590    10.6610 H        73  POP67       0.0265
  9013 H6Y        -27.2700   -16.3800    11.0680 H        73  POP67       0.0265
  9014 C37        -27.5880   -15.8640     8.9590 C.3      73  POP67      -0.0531
  9015 H7X        -27.8920   -14.8960     8.3830 H        73  POP67       0.0265
  9016 H7Y        -28.2450   -16.6700     8.5680 H        73  POP67       0.0265
  9017 C38        -26.1970   -16.1900     8.5060 C.3      73  POP67      -0.0531
  9018 H8X        -25.9500   -17.2150     8.8580 H        73  POP67       0.0265
  9019 H8Y        -25.4490   -15.5700     9.0250 H        73  POP67       0.0265
  9020 C39        -26.0040   -16.0520     6.9290 C.3      73  POP67      -0.0531
  9021 H9X        -24.9570   -16.2300     6.8040 H        73  POP67       0.0265
  9022 H9Y        -26.1680   -14.9940     6.6450 H        73  POP67       0.0265
  9023 C310       -26.6580   -17.1560     6.1090 C.3      73  POP67      -0.0531
  9024 H10X       -27.7190   -17.1000     6.2290 H        73  POP67       0.0265
  9025 H10Y       -26.3780   -18.1160     6.4630 H        73  POP67       0.0265
  9026 C311       -26.3250   -17.1460     4.5930 C.3      73  POP67      -0.0531
  9027 H11X       -25.3830   -16.6430     4.4500 H        73  POP67       0.0265
  9028 H11Y       -27.0880   -16.5840     4.0290 H        73  POP67       0.0265
  9029 C312       -26.1800   -18.5850     4.0200 C.3      73  POP67      -0.0531
  9030 H12X       -27.0720   -19.2710     4.2030 H        73  POP67       0.0265
  9031 H12Y       -25.2940   -18.9910     4.5350 H        73  POP67       0.0265
  9032 C313       -25.8460   -18.5570     2.5530 C.3      73  POP67      -0.0531
  9033 H13X       -24.9940   -17.8840     2.3670 H        73  POP67       0.0265
  9034 H13Y       -26.6090   -18.2430     1.7830 H        73  POP67       0.0265
  9035 C314       -25.2720   -19.9350     2.1720 C.3      73  POP67      -0.0533
  9036 H14X       -25.9930   -20.7080     2.4090 H        73  POP67       0.0265
  9037 H14Y       -24.3950   -20.1980     2.6670 H        73  POP67       0.0265
  9038 C315       -24.8160   -20.0170     0.6600 C.3      73  POP67      -0.0559
  9039 H15X       -23.9770   -19.2540     0.5250 H        73  POP67       0.0263
  9040 H15Y       -25.6920   -19.6310     0.0650 H        73  POP67       0.0263
  9041 C316       -24.1150   -21.3330     0.2450 C.3      73  POP67      -0.0653
  9042 H16X       -24.8290   -22.2080     0.3380 H        73  POP67       0.0230
  9043 H16Y       -23.3170   -21.5260     0.9310 H        73  POP67       0.0230
  9044 H16Z       -23.7900   -21.3210    -0.8130 H        73  POP67       0.0230
  9045 N          -27.5300   -29.7550    19.2380 N.3      74  POP68       0.2385
  9046 C12        -27.1230   -28.4050    18.7880 C.3      74  POP68      -0.0064
  9047 H12A       -26.1980   -28.5030    18.1200 H        74  POP68       0.0838
  9048 H12B       -26.8430   -27.8110    19.7010 H        74  POP68       0.0838
  9049 C13        -27.9470   -30.5380    17.9950 C.3      74  POP68      -0.0417
  9050 H13A       -27.0350   -30.6240    17.3670 H        74  POP68       0.0778
  9051 H13B       -28.2910   -31.4410    18.2940 H        74  POP68       0.0778
  9052 H13C       -28.7170   -30.0480    17.4860 H        74  POP68       0.0778
  9053 C14        -26.3330   -30.5170    19.8150 C.3      74  POP68      -0.0417
  9054 H14A       -26.6440   -31.4770    20.2260 H        74  POP68       0.0778
  9055 H14B       -25.5630   -30.6360    19.0850 H        74  POP68       0.0778
  9056 H14C       -25.9110   -29.9990    20.6700 H        74  POP68       0.0778
  9057 C15        -28.6350   -29.7680    20.2220 C.3      74  POP68      -0.0417
  9058 H15A       -28.1950   -29.5760    21.2090 H        74  POP68       0.0778
  9059 H15B       -29.1610   -30.7370    20.3060 H        74  POP68       0.0778
  9060 H15C       -29.3720   -29.0610    19.9410 H        74  POP68       0.0778
  9061 C11        -28.2740   -27.5410    18.1420 C.3      74  POP68       0.0954
  9062 H11A       -28.8260   -28.1390    17.3950 H        74  POP68       0.0618
  9063 H11B       -27.7030   -26.6210    17.6480 H        74  POP68       0.0618
  9064 P          -30.8380   -27.0460    18.8700 P.3      74  POP68       0.2645
  9065 O13        -31.4810   -26.2450    19.9560 O.co2    74  POP68      -0.5105
  9066 O14        -31.2470   -28.5290    18.7100 O.co2    74  POP68      -0.5105
  9067 O12        -29.3030   -27.0390    19.1200 O.3      74  POP68      -0.3154
  9068 O11        -30.9810   -26.3110    17.5110 O.3      74  POP68      -0.3181
  9069 C1         -30.5490   -24.9780    17.2390 C.3      74  POP68       0.0845
  9070 HA         -29.6530   -24.8390    16.6020 H        74  POP68       0.0591
  9071 HB         -30.5300   -24.3850    18.1650 H        74  POP68       0.0591
  9072 C2         -31.6830   -24.3830    16.3510 C.3      74  POP68       0.1155
  9073 HS         -32.6540   -24.5720    16.9020 H        74  POP68       0.0649
  9074 O21        -31.7300   -25.0710    15.0950 O.3      74  POP68      -0.3072
  9075 C21        -32.9410   -25.3180    14.4740 C.2      74  POP68       0.2626
  9076 O22        -33.9230   -24.7950    14.9460 O.2      74  POP68      -0.2650
  9077 C22        -32.6070   -25.9650    13.1330 C.3      74  POP68       0.0332
  9078 H2R        -32.0700   -26.9520    13.2650 H        74  POP68       0.0366
  9079 H2S        -31.9190   -25.2240    12.6390 H        74  POP68       0.0366
  9080 C3         -31.7280   -22.7800    16.1240 C.3      74  POP68       0.0860
  9081 HX         -31.6890   -22.3420    17.1170 H        74  POP68       0.0593
  9082 HY         -32.6290   -22.5090    15.5640 H        74  POP68       0.0593
  9083 O31        -30.5430   -22.3230    15.4260 O.3      74  POP68      -0.3125
  9084 C31        -30.5670   -22.2560    14.1200 C.2      74  POP68       0.2622
  9085 O32        -31.4690   -22.4960    13.3630 O.2      74  POP68      -0.2650
  9086 C32        -29.1660   -21.8460    13.5600 C.3      74  POP68       0.0332
  9087 H2X        -28.4000   -22.5940    13.8250 H        74  POP68       0.0366
  9088 H2Y        -28.7540   -20.8380    13.9150 H        74  POP68       0.0366
  9089 C23        -33.7000   -26.2940    12.1360 C.3      74  POP68      -0.0441
  9090 H3R        -34.5450   -26.7320    12.6770 H        74  POP68       0.0270
  9091 H3S        -33.3330   -26.9570    11.3320 H        74  POP68       0.0270
  9092 C24        -34.3340   -25.1000    11.4820 C.3      74  POP68      -0.0526
  9093 H4R        -34.8690   -24.6060    12.3520 H        74  POP68       0.0265
  9094 H4S        -35.0550   -25.4330    10.6800 H        74  POP68       0.0265
  9095 C25        -33.4660   -24.1010    10.8030 C.3      74  POP68      -0.0530
  9096 H5R        -32.7600   -24.6800    10.0910 H        74  POP68       0.0265
  9097 H5S        -32.8180   -23.6430    11.5090 H        74  POP68       0.0265
  9098 C26        -34.2130   -23.0690     9.9600 C.3      74  POP68      -0.0528
  9099 H6R        -34.8560   -22.4150    10.5460 H        74  POP68       0.0265
  9100 H6S        -34.8770   -23.6700     9.2780 H        74  POP68       0.0265
  9101 C27        -33.1930   -22.2670     9.0440 C.3      74  POP68      -0.0496
  9102 H7R        -32.5410   -21.7730     9.7840 H        74  POP68       0.0268
  9103 H7S        -33.7320   -21.4720     8.5730 H        74  POP68       0.0268
  9104 C28        -32.4060   -22.9920     7.9760 C.3      74  POP68      -0.0348
  9105 H8R        -31.7460   -23.7440     8.4230 H        74  POP68       0.0307
  9106 H8S        -31.7770   -22.2210     7.5200 H        74  POP68       0.0307
  9107 C29        -33.2020   -23.7530     6.9330 C.2      74  POP68      -0.0879
  9108 H91        -33.4220   -24.7760     7.2410 H        74  POP68       0.0569
  9109 C210       -33.6740   -23.2600     5.7620 C.2      74  POP68      -0.0879
  9110 H101       -34.2730   -23.9180     5.0760 H        74  POP68       0.0569
  9111 C211       -33.4430   -21.8590     5.2590 C.3      74  POP68      -0.0348
  9112 H11R       -32.3690   -21.8580     5.2730 H        74  POP68       0.0307
  9113 H11S       -33.8500   -21.2330     6.1180 H        74  POP68       0.0307
  9114 C212       -34.0930   -21.4830     3.9260 C.3      74  POP68      -0.0496
  9115 H12R       -33.7680   -20.4550     3.6120 H        74  POP68       0.0268
  9116 H12S       -35.1870   -21.4870     3.9160 H        74  POP68       0.0268
  9117 C213       -33.5070   -22.3330     2.7570 C.3      74  POP68      -0.0528
  9118 H13R       -33.6420   -23.4020     2.9080 H        74  POP68       0.0265
  9119 H13S       -32.4050   -22.1270     2.6480 H        74  POP68       0.0265
  9120 C214       -34.0890   -21.8660     1.4310 C.3      74  POP68      -0.0530
  9121 H14R       -33.3160   -22.0550     0.6850 H        74  POP68       0.0265
  9122 H14S       -34.2510   -20.7900     1.3900 H        74  POP68       0.0265
  9123 C215       -35.4100   -22.4580     1.0200 C.3      74  POP68      -0.0531
  9124 H15R       -36.0630   -22.2320     1.9200 H        74  POP68       0.0265
  9125 H15S       -35.2870   -23.5870     0.9750 H        74  POP68       0.0265
  9126 C216       -35.9850   -21.9980    -0.3430 C.3      74  POP68      -0.0533
  9127 H16R       -35.1880   -22.0300    -1.1000 H        74  POP68       0.0265
  9128 H16S       -36.3190   -20.9400    -0.2540 H        74  POP68       0.0265
  9129 C217       -37.0930   -22.9050    -0.7250 C.3      74  POP68      -0.0559
  9130 H17R       -36.7760   -23.8910    -1.0800 H        74  POP68       0.0263
  9131 H17S       -37.5560   -22.4740    -1.6410 H        74  POP68       0.0263
  9132 C218       -38.1900   -23.0180     0.3260 C.3      74  POP68      -0.0653
  9133 H18R       -37.8680   -23.6450     1.1260 H        74  POP68       0.0230
  9134 H18S       -39.1050   -23.3920    -0.0670 H        74  POP68       0.0230
  9135 H18T       -38.3340   -22.0650     0.8150 H        74  POP68       0.0230
  9136 C33        -29.2300   -21.7170    12.0010 C.3      74  POP68      -0.0441
  9137 H3X        -30.0640   -20.9340    11.8800 H        74  POP68       0.0270
  9138 H3Y        -29.5310   -22.6280    11.4710 H        74  POP68       0.0270
  9139 C34        -27.8240   -21.3160    11.5700 C.3      74  POP68      -0.0526
  9140 H4X        -27.1890   -22.1020    12.0300 H        74  POP68       0.0265
  9141 H4Y        -27.6180   -20.3100    11.9670 H        74  POP68       0.0265
  9142 C35        -27.5360   -21.4190    10.0290 C.3      74  POP68      -0.0530
  9143 H5X        -27.5670   -22.5000     9.9500 H        74  POP68       0.0265
  9144 H5Y        -26.4860   -21.1370     9.9570 H        74  POP68       0.0265
  9145 C36        -28.5990   -20.6930     9.2460 C.3      74  POP68      -0.0531
  9146 H6X        -28.7290   -19.6640     9.6120 H        74  POP68       0.0265
  9147 H6Y        -29.6320   -21.0650     9.3500 H        74  POP68       0.0265
  9148 C37        -28.3010   -20.6070     7.7420 C.3      74  POP68      -0.0531
  9149 H7X        -27.3150   -20.2110     7.4210 H        74  POP68       0.0265
  9150 H7Y        -29.0700   -19.9820     7.2090 H        74  POP68       0.0265
  9151 C38        -28.3310   -21.9680     7.0300 C.3      74  POP68      -0.0531
  9152 H8X        -29.2080   -22.6000     7.2300 H        74  POP68       0.0265
  9153 H8Y        -27.4610   -22.6130     7.3910 H        74  POP68       0.0265
  9154 C39        -28.1840   -21.9420     5.4530 C.3      74  POP68      -0.0531
  9155 H9X        -27.1310   -21.5940     5.2670 H        74  POP68       0.0265
  9156 H9Y        -28.8380   -21.1720     4.9490 H        74  POP68       0.0265
  9157 C310       -28.3690   -23.3640     4.7570 C.3      74  POP68      -0.0531
  9158 H10X       -29.4970   -23.6160     4.7900 H        74  POP68       0.0265
  9159 H10Y       -27.8070   -24.0940     5.2770 H        74  POP68       0.0265
  9160 C311       -27.9740   -23.2280     3.3220 C.3      74  POP68      -0.0531
  9161 H11X       -26.8480   -23.0270     3.2500 H        74  POP68       0.0265
  9162 H11Y       -28.5350   -22.4860     2.7420 H        74  POP68       0.0265
  9163 C312       -28.1500   -24.5530     2.5250 C.3      74  POP68      -0.0531
  9164 H12X       -29.1900   -24.8530     2.3400 H        74  POP68       0.0265
  9165 H12Y       -27.7500   -25.3720     3.1900 H        74  POP68       0.0265
  9166 C313       -27.2950   -24.5500     1.2580 C.3      74  POP68      -0.0531
  9167 H13X       -27.4010   -25.5160     0.6620 H        74  POP68       0.0265
  9168 H13Y       -26.1790   -24.5580     1.5620 H        74  POP68       0.0265
  9169 C314       -27.4690   -23.4360     0.1590 C.3      74  POP68      -0.0533
  9170 H14X       -26.6990   -23.5300    -0.6700 H        74  POP68       0.0265
  9171 H14Y       -27.4380   -22.4210     0.6520 H        74  POP68       0.0265
  9172 C315       -28.8720   -23.5130    -0.4370 C.3      74  POP68      -0.0559
  9173 H15X       -29.5400   -23.2800     0.4770 H        74  POP68       0.0263
  9174 H15Y       -29.0640   -24.5260    -0.6600 H        74  POP68       0.0263
  9175 C316       -29.2540   -22.5340    -1.5700 C.3      74  POP68      -0.0653
  9176 H16X       -30.3900   -22.6230    -1.8530 H        74  POP68       0.0230
  9177 H16Y       -28.7430   -22.7190    -2.4490 H        74  POP68       0.0230
  9178 H16Z       -29.0730   -21.4850    -1.2400 H        74  POP68       0.0230
  9179 N           32.0830     1.3700    21.2650 N.3      75  POP69       0.2385
  9180 C12         32.8330     2.1250    22.3430 C.3      75  POP69      -0.0064
  9181 H12A        33.8100     2.3550    22.0110 H        75  POP69       0.0838
  9182 H12B        32.9880     1.4170    23.1810 H        75  POP69       0.0838
  9183 C13         32.7960     0.0360    21.1520 C.3      75  POP69      -0.0417
  9184 H13A        33.8140     0.1590    20.8010 H        75  POP69       0.0778
  9185 H13B        32.8200    -0.4770    22.1080 H        75  POP69       0.0778
  9186 H13C        32.2390    -0.5680    20.4250 H        75  POP69       0.0778
  9187 C14         30.6270     1.2030    21.6940 C.3      75  POP69      -0.0417
  9188 H14A        30.6220     1.2800    22.7630 H        75  POP69       0.0778
  9189 H14B        30.0430     2.0970    21.4780 H        75  POP69       0.0778
  9190 H14C        30.2160     0.3670    21.2600 H        75  POP69       0.0778
  9191 C15         32.1770     2.0160    19.8860 C.3      75  POP69      -0.0417
  9192 H15A        33.1240     1.8280    19.5010 H        75  POP69       0.0778
  9193 H15B        32.0810     3.0490    20.0390 H        75  POP69       0.0778
  9194 H15C        31.3660     1.6590    19.2210 H        75  POP69       0.0778
  9195 C11         32.2510     3.4410    22.8560 C.3      75  POP69       0.0954
  9196 H11A        32.9920     3.9380    23.5280 H        75  POP69       0.0618
  9197 H11B        31.4540     3.2740    23.6000 H        75  POP69       0.0618
  9198 P           30.5890     4.9090    21.5320 P.3      75  POP69       0.2645
  9199 O13         29.8310     5.1030    22.8210 O.co2    75  POP69      -0.5105
  9200 O14         30.0140     4.0380    20.5190 O.co2    75  POP69      -0.5105
  9201 O12         32.0650     4.3890    21.8060 O.3      75  POP69      -0.3154
  9202 O11         30.7410     6.3860    20.8640 O.3      75  POP69      -0.3181
  9203 C1          31.9070     7.2460    20.9100 C.3      75  POP69       0.0845
  9204 HA          32.6930     6.7460    21.5050 H        75  POP69       0.0591
  9205 HB          31.6940     8.2830    21.3820 H        75  POP69       0.0591
  9206 C2          32.5170     7.4740    19.5270 C.3      75  POP69       0.1155
  9207 HS          31.6650     7.6330    18.7850 H        75  POP69       0.0649
  9208 O21         33.3440     6.3520    19.1320 O.3      75  POP69      -0.3072
  9209 C21         33.3360     5.9510    17.9050 C.2      75  POP69       0.2626
  9210 O22         32.7960     6.4760    16.9570 O.2      75  POP69      -0.2650
  9211 C22         34.0630     4.5780    17.8610 C.3      75  POP69       0.0332
  9212 H2R         33.4360     4.0440    18.6340 H        75  POP69       0.0366
  9213 H2S         35.1360     4.6270    18.0380 H        75  POP69       0.0366
  9214 C3          33.2760     8.8180    19.5360 C.3      75  POP69       0.0860
  9215 HX          34.1300     8.6670    20.2200 H        75  POP69       0.0593
  9216 HY          32.4960     9.5460    19.8810 H        75  POP69       0.0593
  9217 O31         33.6270     9.1550    18.1960 O.3      75  POP69      -0.3125
  9218 C31         34.8740     9.5120    18.0290 C.2      75  POP69       0.2622
  9219 O32         35.7240     9.4700    18.8850 O.2      75  POP69      -0.2650
  9220 C32         35.0620     9.8500    16.5770 C.3      75  POP69       0.0332
  9221 H2X         35.9640    10.5210    16.6190 H        75  POP69       0.0366
  9222 H2Y         34.1530    10.3930    16.2580 H        75  POP69       0.0366
  9223 C23         33.7920     3.9130    16.5030 C.3      75  POP69      -0.0441
  9224 H3R         32.7710     3.8830    16.2300 H        75  POP69       0.0270
  9225 H3S         34.0570     2.8490    16.6250 H        75  POP69       0.0270
  9226 C24         34.7650     4.4550    15.3650 C.3      75  POP69      -0.0526
  9227 H4R         35.7790     4.2780    15.8830 H        75  POP69       0.0265
  9228 H4S         34.5780     5.5300    15.2160 H        75  POP69       0.0265
  9229 C25         34.6180     3.7320    13.9810 C.3      75  POP69      -0.0530
  9230 H5R         33.5820     3.8600    13.6080 H        75  POP69       0.0265
  9231 H5S         34.6510     2.6210    14.2220 H        75  POP69       0.0265
  9232 C26         35.7040     4.0980    12.9990 C.3      75  POP69      -0.0528
  9233 H6R         36.6380     3.8310    13.4710 H        75  POP69       0.0265
  9234 H6S         35.7580     5.2220    12.8100 H        75  POP69       0.0265
  9235 C27         35.6310     3.3820    11.5870 C.3      75  POP69      -0.0496
  9236 H7R         35.5270     2.3160    11.8000 H        75  POP69       0.0268
  9237 H7S         36.5870     3.4570    10.9460 H        75  POP69       0.0268
  9238 C28         34.4090     3.7630    10.7360 C.3      75  POP69      -0.0348
  9239 H8R         33.3390     3.4320    11.1890 H        75  POP69       0.0307
  9240 H8S         34.4100     2.9860     9.9260 H        75  POP69       0.0307
  9241 C29         34.3340     5.1090    10.1830 C.2      75  POP69      -0.0879
  9242 H91         33.9960     5.9580    10.8440 H        75  POP69       0.0569
  9243 C210        34.8790     5.5120     8.9970 C.2      75  POP69      -0.0879
  9244 H101        34.6810     6.4920     8.6980 H        75  POP69       0.0569
  9245 C211        35.4400     4.6640     7.8030 C.3      75  POP69      -0.0348
  9246 H11R        35.4370     3.6040     8.1590 H        75  POP69       0.0307
  9247 H11S        36.4520     4.9340     7.6390 H        75  POP69       0.0307
  9248 C212        34.5920     4.6700     6.5150 C.3      75  POP69      -0.0496
  9249 H12R        33.6110     4.3590     6.7490 H        75  POP69       0.0268
  9250 H12S        35.1420     3.9580     5.8410 H        75  POP69       0.0268
  9251 C213        34.4640     6.0250     5.8180 C.3      75  POP69      -0.0528
  9252 H13R        33.7110     6.6620     6.2550 H        75  POP69       0.0265
  9253 H13S        34.0900     5.9060     4.7590 H        75  POP69       0.0265
  9254 C214        35.7710     6.7200     5.4400 C.3      75  POP69      -0.0530
  9255 H14R        36.2400     6.0520     4.6660 H        75  POP69       0.0265
  9256 H14S        36.4360     6.8060     6.3960 H        75  POP69       0.0265
  9257 C215        35.5400     8.2070     4.9300 C.3      75  POP69      -0.0531
  9258 H15R        35.2330     8.8650     5.7250 H        75  POP69       0.0265
  9259 H15S        34.8140     8.2410     4.1260 H        75  POP69       0.0265
  9260 C216        36.7880     8.7480     4.2910 C.3      75  POP69      -0.0533
  9261 H16R        37.2110     7.9750     3.5980 H        75  POP69       0.0265
  9262 H16S        37.5410     8.9440     4.9770 H        75  POP69       0.0265
  9263 C217        36.5000     9.9670     3.3960 C.3      75  POP69      -0.0559
  9264 H17R        35.9340    10.7060     3.9900 H        75  POP69       0.0263
  9265 H17S        35.7420     9.7090     2.5400 H        75  POP69       0.0263
  9266 C218        37.7640    10.6540     2.8550 C.3      75  POP69      -0.0653
  9267 H18R        38.2850    11.3380     3.6020 H        75  POP69       0.0230
  9268 H18S        37.4250    11.3270     2.0500 H        75  POP69       0.0230
  9269 H18T        38.4680     9.9330     2.3570 H        75  POP69       0.0230
  9270 C33         35.5010     8.5330    15.8420 C.3      75  POP69      -0.0441
  9271 H3X         34.6550     7.8000    15.9630 H        75  POP69       0.0270
  9272 H3Y         36.4370     8.0770    16.3910 H        75  POP69       0.0270
  9273 C34         35.9550     8.6880    14.3930 C.3      75  POP69      -0.0526
  9274 H4X         36.0980     7.6150    13.9770 H        75  POP69       0.0265
  9275 H4Y         36.8760     9.2620    14.2570 H        75  POP69       0.0265
  9276 C35         34.8920     9.3580    13.5080 C.3      75  POP69      -0.0530
  9277 H5X         34.8100    10.4430    13.6960 H        75  POP69       0.0265
  9278 H5Y         33.8740     8.8980    13.7250 H        75  POP69       0.0265
  9279 C36         35.0950     9.0890    12.0400 C.3      75  POP69      -0.0531
  9280 H6X         34.3350     9.6200    11.4520 H        75  POP69       0.0265
  9281 H6Y         34.9230     8.0860    11.7530 H        75  POP69       0.0265
  9282 C37         36.4950     9.3960    11.4540 C.3      75  POP69      -0.0531
  9283 H7X         37.2040     8.7690    11.9830 H        75  POP69       0.0265
  9284 H7Y         36.7850    10.5060    11.7190 H        75  POP69       0.0265
  9285 C38         36.7690     9.4310     9.9480 C.3      75  POP69      -0.0531
  9286 H8X         36.0200    10.0760     9.4920 H        75  POP69       0.0265
  9287 H8Y         36.5570     8.4320     9.5250 H        75  POP69       0.0265
  9288 C39         38.1800     9.8450     9.6140 C.3      75  POP69      -0.0531
  9289 H9X         38.8860     9.0740     9.9560 H        75  POP69       0.0265
  9290 H9Y         38.3790    10.8630    10.1030 H        75  POP69       0.0265
  9291 C310        38.1750    10.1620     8.1490 C.3      75  POP69      -0.0531
  9292 H10X        37.4200    10.8750     7.8170 H        75  POP69       0.0265
  9293 H10Y        38.0400     9.1710     7.6070 H        75  POP69       0.0265
  9294 C311        39.5510    10.6280     7.6300 C.3      75  POP69      -0.0531
  9295 H11X        39.4980    10.3890     6.5430 H        75  POP69       0.0265
  9296 H11Y        40.3530     9.9500     8.0090 H        75  POP69       0.0265
  9297 C312        39.7610    12.1420     7.9680 C.3      75  POP69      -0.0531
  9298 H12X        40.6510    12.2800     8.5470 H        75  POP69       0.0265
  9299 H12Y        38.8660    12.5220     8.4650 H        75  POP69       0.0265
  9300 C313        39.9590    13.0520     6.6840 C.3      75  POP69      -0.0531
  9301 H13X        39.0760    13.0140     6.0210 H        75  POP69       0.0265
  9302 H13Y        40.7880    12.6730     6.0510 H        75  POP69       0.0265
  9303 C314        40.3260    14.4670     7.0250 C.3      75  POP69      -0.0533
  9304 H14X        41.2140    14.5530     7.6220 H        75  POP69       0.0265
  9305 H14Y        39.5010    14.8840     7.5690 H        75  POP69       0.0265
  9306 C315        40.6310    15.3280     5.7500 C.3      75  POP69      -0.0559
  9307 H15X        40.5580    16.4070     6.0030 H        75  POP69       0.0263
  9308 H15Y        39.8750    15.0330     4.8930 H        75  POP69       0.0263
  9309 C316        41.9480    15.0470     5.0950 C.3      75  POP69      -0.0653
  9310 H16X        42.6780    15.1180     5.8360 H        75  POP69       0.0230
  9311 H16Y        42.1560    15.8080     4.3270 H        75  POP69       0.0230
  9312 H16Z        41.9980    14.0560     4.5490 H        75  POP69       0.0230
  9313 N          -26.8520    -1.4680    20.7370 N.3      76  POP70       0.2385
  9314 C12        -26.9320    -2.8600    20.1060 C.3      76  POP70      -0.0064
  9315 H12A       -26.1140    -3.5990    20.4400 H        76  POP70       0.0838
  9316 H12B       -26.6760    -2.8490    19.0210 H        76  POP70       0.0838
  9317 C13        -25.5680    -0.7460    20.5700 C.3      76  POP70      -0.0417
  9318 H13A       -25.6560     0.3040    20.8250 H        76  POP70       0.0778
  9319 H13B       -24.8770    -1.2170    21.2290 H        76  POP70       0.0778
  9320 H13C       -25.1710    -0.8260    19.6270 H        76  POP70       0.0778
  9321 C14        -27.8540    -0.5240    20.0810 C.3      76  POP70      -0.0417
  9322 H14A       -28.0810     0.2900    20.6790 H        76  POP70       0.0778
  9323 H14B       -27.4620    -0.0850    19.1730 H        76  POP70       0.0778
  9324 H14C       -28.8250    -1.0150    19.9180 H        76  POP70       0.0778
  9325 C15        -27.1620    -1.4450    22.2090 C.3      76  POP70      -0.0417
  9326 H15A       -28.1350    -1.8610    22.5060 H        76  POP70       0.0778
  9327 H15B       -27.1800    -0.3910    22.5970 H        76  POP70       0.0778
  9328 H15C       -26.4090    -1.9050    22.8680 H        76  POP70       0.0778
  9329 C11        -28.1570    -3.7100    20.3770 C.3      76  POP70       0.0954
  9330 H11A       -28.3090    -3.6270    21.4870 H        76  POP70       0.0618
  9331 H11B       -28.0420    -4.7320    20.0720 H        76  POP70       0.0618
  9332 P          -29.6210    -3.4640    18.2950 P.3      76  POP70       0.2645
  9333 O13        -30.9860    -2.9610    18.0170 O.co2    76  POP70      -0.5105
  9334 O14        -29.2110    -4.8630    18.0330 O.co2    76  POP70      -0.5105
  9335 O12        -29.3170    -3.1390    19.8260 O.3      76  POP70      -0.3154
  9336 O11        -28.6710    -2.5130    17.4330 O.3      76  POP70      -0.3181
  9337 C1         -29.2440    -1.3960    16.7900 C.3      76  POP70       0.0845
  9338 HA         -28.3970    -0.6530    16.6870 H        76  POP70       0.0591
  9339 HB         -29.8880    -0.8180    17.3860 H        76  POP70       0.0591
  9340 C2         -29.7450    -1.7260    15.3880 C.3      76  POP70       0.1155
  9341 HS         -30.7060    -2.3250    15.4920 H        76  POP70       0.0649
  9342 O21        -28.7460    -2.3270    14.6200 O.3      76  POP70      -0.3072
  9343 C21        -29.0560    -3.0800    13.5940 C.2      76  POP70       0.2626
  9344 O22        -30.1760    -3.2860    13.1640 O.2      76  POP70      -0.2650
  9345 C22        -27.7360    -3.7860    13.1090 C.3      76  POP70       0.0332
  9346 H2R        -28.1310    -4.7450    12.8490 H        76  POP70       0.0366
  9347 H2S        -27.0290    -3.9250    13.9740 H        76  POP70       0.0366
  9348 C3         -30.2020    -0.4060    14.7310 C.3      76  POP70       0.0860
  9349 HX         -29.3520     0.2640    14.6890 H        76  POP70       0.0593
  9350 HY         -30.9200     0.0870    15.4500 H        76  POP70       0.0593
  9351 O31        -30.8330    -0.4670    13.4200 O.3      76  POP70      -0.3125
  9352 C31        -32.1270    -0.5060    13.2860 C.2      76  POP70       0.2622
  9353 O32        -32.9620    -0.6750    14.1170 O.2      76  POP70      -0.2650
  9354 C32        -32.4040    -0.3500    11.8090 C.3      76  POP70       0.0332
  9355 H2X        -31.6680    -0.8640    11.1930 H        76  POP70       0.0366
  9356 H2Y        -32.2250     0.7360    11.6300 H        76  POP70       0.0366
  9357 C23        -26.9410    -3.1540    11.9190 C.3      76  POP70      -0.0441
  9358 H3R        -26.3280    -2.3960    12.3880 H        76  POP70       0.0270
  9359 H3S        -27.5550    -2.7080    11.0970 H        76  POP70       0.0270
  9360 C24        -26.0050    -4.2390    11.4330 C.3      76  POP70      -0.0526
  9361 H4R        -26.5380    -5.0860    10.9800 H        76  POP70       0.0265
  9362 H4S        -25.4000    -4.6500    12.2980 H        76  POP70       0.0265
  9363 C25        -25.1390    -3.7050    10.3440 C.3      76  POP70      -0.0530
  9364 H5R        -24.2830    -4.4450    10.3330 H        76  POP70       0.0265
  9365 H5S        -24.7570    -2.7630    10.7550 H        76  POP70       0.0265
  9366 C26        -25.9220    -3.5270     9.0440 C.3      76  POP70      -0.0528
  9367 H6R        -26.7870    -2.8350     9.0780 H        76  POP70       0.0265
  9368 H6S        -26.2690    -4.4510     8.5570 H        76  POP70       0.0265
  9369 C27        -25.0080    -2.8890     8.0010 C.3      76  POP70      -0.0496
  9370 H7R        -25.5720    -2.9480     7.0310 H        76  POP70       0.0268
  9371 H7S        -24.0890    -3.5850     7.8730 H        76  POP70       0.0268
  9372 C28        -24.5340    -1.4580     8.2850 C.3      76  POP70      -0.0348
  9373 H8R        -23.8590    -1.4170     9.1820 H        76  POP70       0.0307
  9374 H8S        -25.4320    -0.8490     8.4940 H        76  POP70       0.0307
  9375 C29        -23.8220    -0.9530     7.0120 C.2      76  POP70      -0.0879
  9376 H91        -24.1200    -1.5010     6.0850 H        76  POP70       0.0569
  9377 C210       -22.8930    -0.0180     6.9270 C.2      76  POP70      -0.0879
  9378 H101       -22.4660     0.2690     5.9000 H        76  POP70       0.0569
  9379 C211       -22.3820     0.9450     7.9970 C.3      76  POP70      -0.0348
  9380 H11R       -21.2490     1.1370     7.8130 H        76  POP70       0.0307
  9381 H11S       -22.3910     0.3850     8.9450 H        76  POP70       0.0307
  9382 C212       -23.1900     2.2430     7.9410 C.3      76  POP70      -0.0496
  9383 H12R       -24.2510     1.9660     8.0350 H        76  POP70       0.0268
  9384 H12S       -23.1580     2.6600     6.9870 H        76  POP70       0.0268
  9385 C213       -22.8950     3.1260     9.1230 C.3      76  POP70      -0.0528
  9386 H13R       -23.5360     4.0260     8.9540 H        76  POP70       0.0265
  9387 H13S       -21.8370     3.5180     9.1220 H        76  POP70       0.0265
  9388 C214       -23.3790     2.6560    10.4930 C.3      76  POP70      -0.0530
  9389 H14R       -23.0580     1.5470    10.6650 H        76  POP70       0.0265
  9390 H14S       -24.5260     2.7140    10.5030 H        76  POP70       0.0265
  9391 C215       -22.7680     3.5510    11.5800 C.3      76  POP70      -0.0531
  9392 H15R       -23.0530     4.6400    11.4940 H        76  POP70       0.0265
  9393 H15S       -21.6790     3.4310    11.4900 H        76  POP70       0.0265
  9394 C216       -23.1160     3.0830    12.9900 C.3      76  POP70      -0.0533
  9395 H16R       -22.8190     1.9990    13.1130 H        76  POP70       0.0265
  9396 H16S       -24.1870     3.1550    13.1400 H        76  POP70       0.0265
  9397 C217       -22.3490     3.9100    13.9950 C.3      76  POP70      -0.0559
  9398 H17R       -21.2800     3.7950    13.6610 H        76  POP70       0.0263
  9399 H17S       -22.4600     3.3910    14.9950 H        76  POP70       0.0263
  9400 C218       -22.6620     5.3690    14.2140 C.3      76  POP70      -0.0653
  9401 H18R       -22.6930     5.8770    13.1620 H        76  POP70       0.0230
  9402 H18S       -21.8350     5.7530    14.8870 H        76  POP70       0.0230
  9403 H18T       -23.6790     5.5270    14.6670 H        76  POP70       0.0230
  9404 C33        -33.8180    -0.6350    11.4860 C.3      76  POP70      -0.0441
  9405 H3X        -33.9350    -0.2890    10.4560 H        76  POP70       0.0270
  9406 H3Y        -34.4360     0.0720    12.0650 H        76  POP70       0.0270
  9407 C34        -34.3290    -2.1140    11.5020 C.3      76  POP70      -0.0526
  9408 H4X        -35.3730    -2.2190    11.0950 H        76  POP70       0.0265
  9409 H4Y        -34.4150    -2.3390    12.5910 H        76  POP70       0.0265
  9410 C35        -33.3640    -3.1030    10.8530 C.3      76  POP70      -0.0530
  9411 H5X        -32.4530    -3.2590    11.4260 H        76  POP70       0.0265
  9412 H5Y        -33.1190    -2.6430     9.8420 H        76  POP70       0.0265
  9413 C36        -34.0750    -4.4370    10.6090 C.3      76  POP70      -0.0531
  9414 H6X        -35.1200    -4.1790    10.2070 H        76  POP70       0.0265
  9415 H6Y        -34.0920    -5.0690    11.5950 H        76  POP70       0.0265
  9416 C37        -33.4540    -5.2530     9.5760 C.3      76  POP70      -0.0531
  9417 H7X        -32.3570    -5.3860     9.7090 H        76  POP70       0.0265
  9418 H7Y        -33.4310    -4.7570     8.5740 H        76  POP70       0.0265
  9419 C38        -34.0540    -6.6530     9.4700 C.3      76  POP70      -0.0531
  9420 H8X        -35.0920    -6.5050     9.0200 H        76  POP70       0.0265
  9421 H8Y        -34.1480    -7.1410    10.4910 H        76  POP70       0.0265
  9422 C39        -33.3440    -7.6130     8.4490 C.3      76  POP70      -0.0531
  9423 H9X        -32.3130    -7.7890     8.8350 H        76  POP70       0.0265
  9424 H9Y        -33.3060    -7.2610     7.4620 H        76  POP70       0.0265
  9425 C310       -33.9930    -9.0100     8.4450 C.3      76  POP70      -0.0531
  9426 H10X       -35.0770    -8.9200     8.6730 H        76  POP70       0.0265
  9427 H10Y       -33.5780    -9.5100     9.3720 H        76  POP70       0.0265
  9428 C311       -33.7700    -9.7920     7.1630 C.3      76  POP70      -0.0531
  9429 H11X       -34.2160    -9.1930     6.2840 H        76  POP70       0.0265
  9430 H11Y       -34.2340   -10.8540     7.1940 H        76  POP70       0.0265
  9431 C312       -32.2330   -10.0600     6.8890 C.3      76  POP70      -0.0531
  9432 H12X       -31.8790    -9.0170     6.5670 H        76  POP70       0.0265
  9433 H12Y       -32.2240   -10.6970     5.9460 H        76  POP70       0.0265
  9434 C313       -31.4990   -10.7740     8.0820 C.3      76  POP70      -0.0531
  9435 H13X       -31.5020   -10.0150     8.9250 H        76  POP70       0.0265
  9436 H13Y       -30.4220   -10.9390     7.8210 H        76  POP70       0.0265
  9437 C314       -32.1760   -12.0410     8.5830 C.3      76  POP70      -0.0533
  9438 H14X       -32.0010   -12.9180     7.8610 H        76  POP70       0.0265
  9439 H14Y       -33.3030   -11.8150     8.7740 H        76  POP70       0.0265
  9440 C315       -31.6170   -12.5900     9.9370 C.3      76  POP70      -0.0559
  9441 H15X       -31.6140   -11.7010    10.6450 H        76  POP70       0.0263
  9442 H15Y       -30.5260   -12.8920     9.8880 H        76  POP70       0.0263
  9443 C316       -32.4520   -13.6510    10.6680 C.3      76  POP70      -0.0653
  9444 H16X       -32.6600   -14.5660    10.0600 H        76  POP70       0.0230
  9445 H16Y       -33.4740   -13.3890    11.0410 H        76  POP70       0.0230
  9446 H16Z       -31.8540   -14.0720    11.4840 H        76  POP70       0.0230
  9447 N          -20.7480    10.9780    20.5030 N.3      77  POP71       0.2385
  9448 C12        -21.6630    11.5950    21.6110 C.3      77  POP71      -0.0064
  9449 H12A       -21.3290    11.0490    22.4480 H        77  POP71       0.0838
  9450 H12B       -22.6940    11.4150    21.3240 H        77  POP71       0.0838
  9451 C13        -21.1220    11.5070    19.2100 C.3      77  POP71      -0.0417
  9452 H13A       -21.2090    12.5920    19.2470 H        77  POP71       0.0778
  9453 H13B       -20.4430    11.1800    18.4120 H        77  POP71       0.0778
  9454 H13C       -22.0960    11.3380    18.9210 H        77  POP71       0.0778
  9455 C14        -19.3290    11.2840    20.7860 C.3      77  POP71      -0.0417
  9456 H14A       -18.5230    11.0620    19.9810 H        77  POP71       0.0778
  9457 H14B       -19.1670    12.4200    20.8560 H        77  POP71       0.0778
  9458 H14C       -18.9790    10.8950    21.7160 H        77  POP71       0.0778
  9459 C15        -20.8730     9.4570    20.5030 C.3      77  POP71      -0.0417
  9460 H15A       -20.1530     9.0470    19.8570 H        77  POP71       0.0778
  9461 H15B       -21.8340     9.0650    20.1900 H        77  POP71       0.0778
  9462 H15C       -20.5830     9.0820    21.5020 H        77  POP71       0.0778
  9463 C11        -21.3640    13.0510    22.0130 C.3      77  POP71       0.0954
  9464 H11A       -20.3100    13.2010    22.3120 H        77  POP71       0.0618
  9465 H11B       -21.9170    13.2750    22.9580 H        77  POP71       0.0618
  9466 P          -23.2830    14.1410    20.4810 P.3      77  POP71       0.2645
  9467 O13        -23.7320    15.5980    20.4410 O.co2    77  POP71      -0.5105
  9468 O14        -24.1320    13.0900    21.1170 O.co2    77  POP71      -0.5105
  9469 O12        -21.7760    14.0180    21.0040 O.3      77  POP71      -0.3154
  9470 O11        -23.0630    13.6090    18.9580 O.3      77  POP71      -0.3181
  9471 C1         -22.7450    14.5840    17.9460 C.3      77  POP71       0.0845
  9472 HA         -21.7620    14.3410    17.5300 H        77  POP71       0.0591
  9473 HB         -22.7370    15.6750    18.2550 H        77  POP71       0.0591
  9474 C2         -23.8400    14.3880    16.8660 C.3      77  POP71       0.1155
  9475 HS         -24.8030    14.3860    17.4720 H        77  POP71       0.0649
  9476 O21        -23.6160    13.0750    16.2270 O.3      77  POP71      -0.3072
  9477 C21        -24.7680    12.4180    15.9420 C.2      77  POP71       0.2626
  9478 O22        -25.8730    12.8100    16.2210 O.2      77  POP71      -0.2650
  9479 C22        -24.3840    11.2060    15.1230 C.3      77  POP71       0.0332
  9480 H2R        -25.1200    11.0540    14.3370 H        77  POP71       0.0366
  9481 H2S        -24.5660    10.2600    15.8140 H        77  POP71       0.0366
  9482 C3         -23.8590    15.4090    15.6660 C.3      77  POP71       0.0860
  9483 HX         -24.1160    16.4540    16.1680 H        77  POP71       0.0593
  9484 HY         -24.7330    15.0440    15.0690 H        77  POP71       0.0593
  9485 O31        -22.7230    15.4460    14.7880 O.3      77  POP71      -0.3125
  9486 C31        -21.6670    16.1650    15.2430 C.2      77  POP71       0.2622
  9487 O32        -21.6570    16.7100    16.3400 O.2      77  POP71      -0.2650
  9488 C32        -20.5280    16.1510    14.2660 C.3      77  POP71       0.0332
  9489 H2X        -20.0370    17.1290    14.1920 H        77  POP71       0.0366
  9490 H2Y        -21.0350    16.0730    13.2570 H        77  POP71       0.0366
  9491 C23        -22.9190    10.9830    14.7550 C.3      77  POP71      -0.0441
  9492 H3R        -22.2580    11.1390    15.6630 H        77  POP71       0.0270
  9493 H3S        -22.5310    11.7990    14.0340 H        77  POP71       0.0270
  9494 C24        -22.6750     9.5800    14.2720 C.3      77  POP71      -0.0526
  9495 H4R        -23.1390     8.9060    14.9440 H        77  POP71       0.0265
  9496 H4S        -21.5840     9.3840    14.1880 H        77  POP71       0.0265
  9497 C25        -23.3150     9.3310    12.8550 C.3      77  POP71      -0.0530
  9498 H5R        -24.4420     9.6650    13.1040 H        77  POP71       0.0265
  9499 H5S        -23.2470     8.2130    12.7100 H        77  POP71       0.0265
  9500 C26        -22.7570    10.0570    11.6660 C.3      77  POP71      -0.0528
  9501 H6R        -21.6670     9.7590    11.5830 H        77  POP71       0.0265
  9502 H6S        -22.7880    11.1530    11.9750 H        77  POP71       0.0265
  9503 C27        -23.4610     9.7610    10.3470 C.3      77  POP71      -0.0496
  9504 H7R        -23.0000    10.2630     9.4730 H        77  POP71       0.0268
  9505 H7S        -24.5650    10.2360    10.3720 H        77  POP71       0.0268
  9506 C28        -23.7910     8.3940     9.9040 C.3      77  POP71      -0.0348
  9507 H8R        -24.4950     8.3030     9.0680 H        77  POP71       0.0307
  9508 H8S        -24.4360     7.9100    10.7080 H        77  POP71       0.0307
  9509 C29        -22.4950     7.6110     9.6290 C.2      77  POP71      -0.0879
  9510 H91        -21.9780     7.1660    10.5430 H        77  POP71       0.0569
  9511 C210       -21.9380     7.3100     8.4250 C.2      77  POP71      -0.0879
  9512 H101       -21.0000     6.7180     8.5380 H        77  POP71       0.0569
  9513 C211       -22.4560     7.6770     7.0630 C.3      77  POP71      -0.0348
  9514 H11R       -21.6560     7.7180     6.3400 H        77  POP71       0.0307
  9515 H11S       -22.9250     8.6390     7.2750 H        77  POP71       0.0307
  9516 C212       -23.6650     6.7680     6.6120 C.3      77  POP71      -0.0496
  9517 H12R       -24.2200     6.4760     7.4570 H        77  POP71       0.0268
  9518 H12S       -23.3090     5.7600     6.2530 H        77  POP71       0.0268
  9519 C213       -24.6020     7.2710     5.5000 C.3      77  POP71      -0.0528
  9520 H13R       -25.0850     8.1110     5.9680 H        77  POP71       0.0265
  9521 H13S       -25.3520     6.5800     5.1490 H        77  POP71       0.0265
  9522 C214       -23.9080     7.6890     4.2010 C.3      77  POP71      -0.0530
  9523 H14R       -23.0150     8.3850     4.3510 H        77  POP71       0.0265
  9524 H14S       -24.7630     8.1230     3.5780 H        77  POP71       0.0265
  9525 C215       -23.4550     6.4870     3.3560 C.3      77  POP71      -0.0531
  9526 H15R       -24.2570     5.6790     3.4220 H        77  POP71       0.0265
  9527 H15S       -22.5270     5.9960     3.7410 H        77  POP71       0.0265
  9528 C216       -23.1410     6.9170     1.8630 C.3      77  POP71      -0.0533
  9529 H16R       -23.7050     7.7760     1.5010 H        77  POP71       0.0265
  9530 H16S       -23.3360     6.0550     1.1040 H        77  POP71       0.0265
  9531 C217       -21.7030     7.2470     1.6820 C.3      77  POP71      -0.0559
  9532 H17R       -21.0730     6.4270     2.1610 H        77  POP71       0.0263
  9533 H17S       -21.3560     8.1620     2.2350 H        77  POP71       0.0263
  9534 C218       -21.2850     7.4100     0.1870 C.3      77  POP71      -0.0653
  9535 H18R       -21.9660     8.0680    -0.4230 H        77  POP71       0.0230
  9536 H18S       -21.4860     6.3870    -0.1720 H        77  POP71       0.0230
  9537 H18T       -20.2830     7.7040    -0.0240 H        77  POP71       0.0230
  9538 C33        -19.4520    15.0240    14.4270 C.3      77  POP71      -0.0441
  9539 H3X        -18.9210    15.0330    15.3720 H        77  POP71       0.0270
  9540 H3Y        -18.7210    15.1990    13.5570 H        77  POP71       0.0270
  9541 C34        -19.9980    13.5770    14.1870 C.3      77  POP71      -0.0526
  9542 H4X        -20.3530    13.5150    13.1730 H        77  POP71       0.0265
  9543 H4Y        -20.9100    13.4340    14.8870 H        77  POP71       0.0265
  9544 C35        -19.1400    12.3830    14.5520 C.3      77  POP71      -0.0530
  9545 H5X        -19.6290    11.3560    14.4990 H        77  POP71       0.0265
  9546 H5Y        -19.0680    12.5510    15.6780 H        77  POP71       0.0265
  9547 C36        -17.9020    12.2770    13.6670 C.3      77  POP71      -0.0531
  9548 H6X        -17.2490    11.5840    14.1040 H        77  POP71       0.0265
  9549 H6Y        -17.3260    13.2640    13.5930 H        77  POP71       0.0265
  9550 C37        -18.2590    11.7080    12.2990 C.3      77  POP71      -0.0531
  9551 H7X        -18.8120    12.4550    11.7550 H        77  POP71       0.0265
  9552 H7Y        -19.0230    10.8630    12.4500 H        77  POP71       0.0265
  9553 C38        -17.0200    11.1850    11.5600 C.3      77  POP71      -0.0531
  9554 H8X        -16.5870    10.2780    12.0960 H        77  POP71       0.0265
  9555 H8Y        -16.1680    11.8950    11.5130 H        77  POP71       0.0265
  9556 C39        -17.3080    10.7730    10.1070 C.3      77  POP71      -0.0531
  9557 H9X        -17.4920    11.7590     9.6010 H        77  POP71       0.0265
  9558 H9Y        -18.2250    10.0560    10.0560 H        77  POP71       0.0265
  9559 C310       -16.1280     9.9990     9.5100 C.3      77  POP71      -0.0531
  9560 H10X       -16.0230     9.0010     9.9640 H        77  POP71       0.0265
  9561 H10Y       -15.1960    10.5060     9.7180 H        77  POP71       0.0265
  9562 C311       -16.3040     9.6830     8.0300 C.3      77  POP71      -0.0531
  9563 H11X       -15.4820     9.1120     7.4820 H        77  POP71       0.0265
  9564 H11Y       -16.4070    10.5420     7.4520 H        77  POP71       0.0265
  9565 C312       -17.5370     8.7840     7.6740 C.3      77  POP71      -0.0531
  9566 H12X       -18.4690     9.3410     8.0610 H        77  POP71       0.0265
  9567 H12Y       -17.5080     7.7860     8.0890 H        77  POP71       0.0265
  9568 C313       -17.8660     8.8200     6.1590 C.3      77  POP71      -0.0531
  9569 H13X       -18.0330     9.8400     5.7520 H        77  POP71       0.0265
  9570 H13Y       -18.8930     8.3310     6.2000 H        77  POP71       0.0265
  9571 C314       -16.8600     7.9660     5.3740 C.3      77  POP71      -0.0533
  9572 H14X       -16.7880     7.0680     6.0030 H        77  POP71       0.0265
  9573 H14Y       -15.8860     8.3820     5.3110 H        77  POP71       0.0265
  9574 C315       -17.3140     7.4630     4.0320 C.3      77  POP71      -0.0559
  9575 H15X       -18.0020     6.6170     4.1450 H        77  POP71       0.0263
  9576 H15Y       -16.3860     7.0320     3.4110 H        77  POP71       0.0263
  9577 C316       -18.0890     8.4790     3.1300 C.3      77  POP71      -0.0653
  9578 H16X       -18.3390     8.0280     2.1540 H        77  POP71       0.0230
  9579 H16Y       -17.3190     9.2220     2.9050 H        77  POP71       0.0230
  9580 H16Z       -18.9260     8.9560     3.6250 H        77  POP71       0.0230
  9581 N           30.0250    -3.0490    15.4410 N.3      78  POP72       0.2385
  9582 C12         30.6240    -4.0910    14.5320 C.3      78  POP72      -0.0064
  9583 H12A        31.4680    -4.5710    14.9880 H        78  POP72       0.0838
  9584 H12B        31.0100    -3.4970    13.7080 H        78  POP72       0.0838
  9585 C13         28.8900    -2.3360    14.7740 C.3      78  POP72      -0.0417
  9586 H13A        28.0370    -2.9450    14.6810 H        78  POP72       0.0778
  9587 H13B        28.5820    -1.5540    15.4230 H        78  POP72       0.0778
  9588 H13C        29.1170    -1.9520    13.8010 H        78  POP72       0.0778
  9589 C14         29.5400    -3.7010    16.7280 C.3      78  POP72      -0.0417
  9590 H14A        29.2490    -2.8150    17.3460 H        78  POP72       0.0778
  9591 H14B        28.7340    -4.3310    16.5250 H        78  POP72       0.0778
  9592 H14C        30.3120    -4.3420    17.1250 H        78  POP72       0.0778
  9593 C15         31.1180    -2.1470    15.8600 C.3      78  POP72      -0.0417
  9594 H15A        30.7310    -1.3060    16.3930 H        78  POP72       0.0778
  9595 H15B        31.6480    -1.8050    14.9480 H        78  POP72       0.0778
  9596 H15C        31.8000    -2.7200    16.4970 H        78  POP72       0.0778
  9597 C11         29.7370    -5.1160    13.8140 C.3      78  POP72       0.0954
  9598 H11A        30.2730    -5.8120    13.2300 H        78  POP72       0.0618
  9599 H11B        29.0850    -4.5570    13.1910 H        78  POP72       0.0618
  9600 P           29.6320    -7.0100    15.6500 P.3      78  POP72       0.2645
  9601 O13         28.9550    -6.9320    16.9580 O.co2    78  POP72      -0.5105
  9602 O14         31.1210    -6.8690    15.6500 O.co2    78  POP72      -0.5105
  9603 O12         28.9760    -5.8590    14.7710 O.3      78  POP72      -0.3154
  9604 O11         29.1490    -8.3130    14.9650 O.3      78  POP72      -0.3181
  9605 C1          30.1680    -9.0200    14.2220 C.3      78  POP72       0.0845
  9606 HA          30.8400    -9.6660    14.8290 H        78  POP72       0.0591
  9607 HB          30.8030    -8.3600    13.6250 H        78  POP72       0.0591
  9608 C2          29.5530    -9.9680    13.1460 C.3      78  POP72       0.1155
  9609 HS          30.4060   -10.1600    12.4020 H        78  POP72       0.0649
  9610 O21         28.4230    -9.2610    12.4310 O.3      78  POP72      -0.3072
  9611 C21         28.8500    -8.2390    11.7550 C.2      78  POP72       0.2626
  9612 O22         30.0070    -7.9760    11.4850 O.2      78  POP72      -0.2650
  9613 C22         27.6270    -7.4860    11.1320 C.3      78  POP72       0.0332
  9614 H2R         27.4900    -6.5350    11.7440 H        78  POP72       0.0366
  9615 H2S         26.7130    -8.0660    11.3120 H        78  POP72       0.0366
  9616 C3          29.0070   -11.2920    13.6740 C.3      78  POP72       0.0860
  9617 HX          28.1140   -11.1280    14.3230 H        78  POP72       0.0593
  9618 HY          29.6120   -11.8010    14.4730 H        78  POP72       0.0593
  9619 O31         28.6630   -12.2530    12.6730 O.3      78  POP72      -0.3125
  9620 C31         29.5900   -13.1510    12.2710 C.2      78  POP72       0.2622
  9621 O32         30.6690   -13.3610    12.7610 O.2      78  POP72      -0.2650
  9622 C32         29.0070   -13.8400    11.0260 C.3      78  POP72       0.0332
  9623 H2X         28.8040   -13.1010    10.2200 H        78  POP72       0.0366
  9624 H2Y         27.9930   -14.2970    11.2930 H        78  POP72       0.0366
  9625 C23         27.9160    -7.0340     9.7140 C.3      78  POP72      -0.0441
  9626 H3R         29.0270    -6.8860     9.4620 H        78  POP72       0.0270
  9627 H3S         27.4000    -6.0210     9.6170 H        78  POP72       0.0270
  9628 C24         27.3420    -7.9830     8.6970 C.3      78  POP72      -0.0526
  9629 H4R         27.2070    -7.4390     7.6970 H        78  POP72       0.0265
  9630 H4S         26.3480    -8.3480     8.9860 H        78  POP72       0.0265
  9631 C25         28.2850    -9.1310     8.3500 C.3      78  POP72      -0.0530
  9632 H5R         28.7370    -9.7100     9.1890 H        78  POP72       0.0265
  9633 H5S         29.1480    -8.6110     7.8560 H        78  POP72       0.0265
  9634 C26         27.6750   -10.1950     7.3420 C.3      78  POP72      -0.0528
  9635 H6R         27.3890    -9.7060     6.3540 H        78  POP72       0.0265
  9636 H6S         26.6900   -10.4440     7.8250 H        78  POP72       0.0265
  9637 C27         28.4710   -11.4160     7.0360 C.3      78  POP72      -0.0496
  9638 H7R         29.0410   -11.7440     7.9410 H        78  POP72       0.0268
  9639 H7S         29.3250   -11.1850     6.3330 H        78  POP72       0.0268
  9640 C28         27.6410   -12.5590     6.4620 C.3      78  POP72      -0.0348
  9641 H8R         26.7130   -12.7140     7.0220 H        78  POP72       0.0307
  9642 H8S         28.2370   -13.5420     6.4910 H        78  POP72       0.0307
  9643 C29         27.1640   -12.2230     5.0760 C.2      78  POP72      -0.0879
  9644 H91         26.4530   -11.4000     5.0530 H        78  POP72       0.0569
  9645 C210        27.5260   -12.8750     3.9260 C.2      78  POP72      -0.0879
  9646 H101        27.1160   -12.5110     2.9750 H        78  POP72       0.0569
  9647 C211        28.3160   -14.1320     3.8100 C.3      78  POP72      -0.0348
  9648 H11R        27.8720   -14.9280     3.2420 H        78  POP72       0.0307
  9649 H11S        28.5800   -14.6170     4.7220 H        78  POP72       0.0307
  9650 C212        29.5650   -14.0890     2.8680 C.3      78  POP72      -0.0496
  9651 H12R        29.1380   -13.7670     1.8980 H        78  POP72       0.0268
  9652 H12S        30.0620   -15.1160     2.7920 H        78  POP72       0.0268
  9653 C213        30.5160   -12.9760     3.3000 C.3      78  POP72      -0.0528
  9654 H13R        30.8840   -13.0620     4.3460 H        78  POP72       0.0265
  9655 H13S        29.9620   -11.9860     3.3780 H        78  POP72       0.0265
  9656 C214        31.7810   -13.0300     2.5000 C.3      78  POP72      -0.0530
  9657 H14R        31.5700   -12.5880     1.4860 H        78  POP72       0.0265
  9658 H14S        32.1670   -14.0610     2.3470 H        78  POP72       0.0265
  9659 C215        33.0000   -12.3230     3.0880 C.3      78  POP72      -0.0531
  9660 H15R        33.1470   -12.7030     4.0740 H        78  POP72       0.0265
  9661 H15S        32.7780   -11.2800     3.1460 H        78  POP72       0.0265
  9662 C216        34.3480   -12.5780     2.2940 C.3      78  POP72      -0.0533
  9663 H16R        35.1360   -11.8400     2.6590 H        78  POP72       0.0265
  9664 H16S        34.1420   -12.3160     1.2950 H        78  POP72       0.0265
  9665 C217        34.8590   -14.0510     2.1250 C.3      78  POP72      -0.0559
  9666 H17R        34.0060   -14.6710     1.8260 H        78  POP72       0.0263
  9667 H17S        35.2420   -14.4560     3.1760 H        78  POP72       0.0263
  9668 C218        35.8330   -14.1830     1.0550 C.3      78  POP72      -0.0653
  9669 H18R        36.3740   -15.2540     1.1100 H        78  POP72       0.0230
  9670 H18S        36.6210   -13.4340     1.0180 H        78  POP72       0.0230
  9671 H18T        35.3490   -14.1100     0.0020 H        78  POP72       0.0230
  9672 C33         29.9140   -15.0000    10.6580 C.3      78  POP72      -0.0441
  9673 H3X         30.0300   -15.7710    11.4590 H        78  POP72       0.0270
  9674 H3Y         30.9180   -14.5470    10.4020 H        78  POP72       0.0270
  9675 C34         29.3870   -15.7400     9.4030 C.3      78  POP72      -0.0526
  9676 H4X         29.3980   -15.0460     8.4850 H        78  POP72       0.0265
  9677 H4Y         28.3700   -15.9990     9.6740 H        78  POP72       0.0265
  9678 C35         30.1380   -17.0240     9.0250 C.3      78  POP72      -0.0530
  9679 H5X         30.1440   -17.6720     9.9930 H        78  POP72       0.0265
  9680 H5Y         31.2190   -16.8230     8.7860 H        78  POP72       0.0265
  9681 C36         29.4470   -17.7040     7.9020 C.3      78  POP72      -0.0531
  9682 H6X         29.3840   -17.0020     7.0350 H        78  POP72       0.0265
  9683 H6Y         28.4060   -17.7220     8.1690 H        78  POP72       0.0265
  9684 C37         29.8860   -19.0560     7.4140 C.3      78  POP72      -0.0531
  9685 H7X         29.9200   -19.7410     8.2420 H        78  POP72       0.0265
  9686 H7Y         30.9340   -19.0100     6.8840 H        78  POP72       0.0265
  9687 C38         28.8090   -19.6140     6.4040 C.3      78  POP72      -0.0531
  9688 H8X         28.7940   -19.0510     5.4280 H        78  POP72       0.0265
  9689 H8Y         27.8010   -19.3950     6.9240 H        78  POP72       0.0265
  9690 C39         28.9240   -21.0850     6.0790 C.3      78  POP72      -0.0531
  9691 H9X         29.9330   -21.3910     6.0430 H        78  POP72       0.0265
  9692 H9Y         28.3800   -21.2810     5.1330 H        78  POP72       0.0265
  9693 C310        28.0700   -21.8970     7.1290 C.3      78  POP72      -0.0531
  9694 H10X        26.9630   -21.6240     7.1000 H        78  POP72       0.0265
  9695 H10Y        28.5110   -21.5020     8.0410 H        78  POP72       0.0265
  9696 C311        28.3280   -23.3930     7.1750 C.3      78  POP72      -0.0531
  9697 H11X        28.0470   -23.8950     8.2110 H        78  POP72       0.0265
  9698 H11Y        29.4360   -23.5070     6.9990 H        78  POP72       0.0265
  9699 C312        27.4630   -24.1070     6.1950 C.3      78  POP72      -0.0531
  9700 H12X        27.5860   -23.6600     5.2210 H        78  POP72       0.0265
  9701 H12Y        26.3990   -23.9770     6.5130 H        78  POP72       0.0265
  9702 C313        27.7170   -25.6120     6.0360 C.3      78  POP72      -0.0531
  9703 H13X        26.9910   -26.0760     5.3300 H        78  POP72       0.0265
  9704 H13Y        27.5570   -26.1200     7.0240 H        78  POP72       0.0265
  9705 C314        29.2090   -26.0310     5.7070 C.3      78  POP72      -0.0533
  9706 H14X        29.5120   -27.0420     6.1460 H        78  POP72       0.0265
  9707 H14Y        29.8930   -25.3690     6.2120 H        78  POP72       0.0265
  9708 C315        29.3990   -26.0160     4.1950 C.3      78  POP72      -0.0559
  9709 H15X        29.5780   -24.9410     3.8180 H        78  POP72       0.0263
  9710 H15Y        28.4510   -26.3770     3.7310 H        78  POP72       0.0263
  9711 C316        30.6460   -26.8980     3.8030 C.3      78  POP72      -0.0653
  9712 H16X        31.5090   -26.5640     4.3780 H        78  POP72       0.0230
  9713 H16Y        30.7920   -26.7110     2.7130 H        78  POP72       0.0230
  9714 H16Z        30.3670   -27.9050     4.1670 H        78  POP72       0.0230
  9715 N            9.9740    16.3790   -24.2470 N.3      79  POP73       0.2385
  9716 C12          9.2450    16.7510   -23.0150 C.3      79  POP73      -0.0064
  9717 H12A         9.5710    17.6560   -22.5690 H        79  POP73       0.0838
  9718 H12B         9.6070    16.0360   -22.2410 H        79  POP73       0.0838
  9719 C13         11.3890    16.1840   -23.8780 C.3      79  POP73      -0.0417
  9720 H13A        12.0170    16.1910   -24.7640 H        79  POP73       0.0778
  9721 H13B        11.7600    16.9140   -23.2360 H        79  POP73       0.0778
  9722 H13C        11.5210    15.2380   -23.2950 H        79  POP73       0.0778
  9723 C14          9.3780    15.1660   -24.8460 C.3      79  POP73      -0.0417
  9724 H14A         9.3980    14.4260   -24.0830 H        79  POP73       0.0778
  9725 H14B         8.3290    15.2910   -25.2500 H        79  POP73       0.0778
  9726 H14C         9.8810    14.8620   -25.7460 H        79  POP73       0.0778
  9727 C15          9.9150    17.5800   -25.1400 C.3      79  POP73      -0.0417
  9728 H15A        10.3350    17.4250   -26.0890 H        79  POP73       0.0778
  9729 H15B        10.4200    18.4140   -24.6970 H        79  POP73       0.0778
  9730 H15C         8.8590    17.8700   -25.2740 H        79  POP73       0.0778
  9731 C11          7.7260    16.7570   -22.9590 C.3      79  POP73       0.0954
  9732 H11A         7.5750    17.1440   -21.9570 H        79  POP73       0.0618
  9733 H11B         7.2940    15.7280   -23.1720 H        79  POP73       0.0618
  9734 P            5.5750    17.6670   -23.9230 P.3      79  POP73       0.2645
  9735 O13          5.1440    16.3060   -23.6440 O.co2    79  POP73      -0.5105
  9736 O14          5.1700    18.3450   -25.1770 O.co2    79  POP73      -0.5105
  9737 O12          7.1670    17.7340   -23.8030 O.3      79  POP73      -0.3154
  9738 O11          5.2320    18.6600   -22.7370 O.3      79  POP73      -0.3181
  9739 C1           5.0350    18.3630   -21.4090 C.3      79  POP73       0.0845
  9740 HA           5.6400    19.1750   -20.8240 H        79  POP73       0.0591
  9741 HB           5.4010    17.3450   -21.1200 H        79  POP73       0.0591
  9742 C2           3.5840    18.3400   -20.9390 C.3      79  POP73       0.1155
  9743 HS           3.0690    17.5000   -21.4860 H        79  POP73       0.0649
  9744 O21          3.0400    19.6510   -21.2210 O.3      79  POP73      -0.3072
  9745 C21          1.7750    19.6860   -21.5320 C.2      79  POP73       0.2626
  9746 O22          1.1110    18.7390   -21.8710 O.2      79  POP73      -0.2650
  9747 C22          1.3340    21.1680   -21.5610 C.3      79  POP73       0.0332
  9748 H2R          0.2650    21.3100   -21.8530 H        79  POP73       0.0366
  9749 H2S          2.0550    21.6520   -22.2400 H        79  POP73       0.0366
  9750 C3           3.4020    18.1080   -19.3980 C.3      79  POP73       0.0860
  9751 HX           3.7740    17.1120   -19.1630 H        79  POP73       0.0593
  9752 HY           2.3370    18.1250   -19.2070 H        79  POP73       0.0593
  9753 O31          4.2330    19.1050   -18.6180 O.3      79  POP73      -0.3125
  9754 C31          3.8890    19.3970   -17.3900 C.2      79  POP73       0.2622
  9755 O32          2.8630    19.0620   -16.8390 O.2      79  POP73      -0.2650
  9756 C32          4.8830    20.3640   -16.7440 C.3      79  POP73       0.0332
  9757 H2X          4.8750    21.2900   -17.2890 H        79  POP73       0.0366
  9758 H2Y          5.8670    19.8940   -16.7430 H        79  POP73       0.0366
  9759 C23          1.4540    21.8490   -20.1610 C.3      79  POP73      -0.0441
  9760 H3R          1.4610    22.9560   -20.4520 H        79  POP73       0.0270
  9761 H3S          2.3660    21.5190   -19.6350 H        79  POP73       0.0270
  9762 C24          0.1180    21.7130   -19.3730 C.3      79  POP73      -0.0526
  9763 H4R          0.0360    20.6260   -18.9300 H        79  POP73       0.0265
  9764 H4S         -0.7270    21.8800   -20.1020 H        79  POP73       0.0265
  9765 C25          0.0410    22.7380   -18.1250 C.3      79  POP73      -0.0530
  9766 H5R         -0.8990    22.4960   -17.6970 H        79  POP73       0.0265
  9767 H5S          0.0240    23.7640   -18.5150 H        79  POP73       0.0265
  9768 C26          1.1750    22.7190   -17.1780 C.3      79  POP73      -0.0528
  9769 H6R          2.1260    22.8920   -17.7040 H        79  POP73       0.0265
  9770 H6S          1.2210    21.6860   -16.7780 H        79  POP73       0.0265
  9771 C27          1.1180    23.6620   -15.9550 C.3      79  POP73      -0.0496
  9772 H7R          0.8210    24.6200   -16.4390 H        79  POP73       0.0268
  9773 H7S          2.1940    23.7450   -15.4010 H        79  POP73       0.0268
  9774 C28          0.1240    23.2060   -14.8810 C.3      79  POP73      -0.0348
  9775 H8R          0.2080    22.1710   -14.6430 H        79  POP73       0.0307
  9776 H8S         -0.8600    23.2960   -15.4190 H        79  POP73       0.0307
  9777 C29          0.1490    24.0600   -13.6590 C.2      79  POP73      -0.0879
  9778 H91         -0.3300    25.0650   -13.7520 H        79  POP73       0.0569
  9779 C210         0.8230    23.7630   -12.5160 C.2      79  POP73      -0.0879
  9780 H101         0.9770    24.5480   -11.7950 H        79  POP73       0.0569
  9781 C211         1.3960    22.5090   -12.0680 C.3      79  POP73      -0.0348
  9782 H11R         2.4900    22.7300   -11.9750 H        79  POP73       0.0307
  9783 H11S         1.2780    21.6750   -12.7570 H        79  POP73       0.0307
  9784 C212         1.0690    21.9710   -10.6580 C.3      79  POP73      -0.0496
  9785 H12R         1.7260    21.0280   -10.4210 H        79  POP73       0.0268
  9786 H12S        -0.0610    21.6970   -10.5820 H        79  POP73       0.0268
  9787 C213         1.2880    22.9150    -9.4400 C.3      79  POP73      -0.0528
  9788 H13R         0.4420    23.6340    -9.6030 H        79  POP73       0.0265
  9789 H13S         2.1900    23.5780    -9.4910 H        79  POP73       0.0265
  9790 C214         1.1120    22.3500    -8.0100 C.3      79  POP73      -0.0530
  9791 H14R         1.8810    21.5500    -7.8930 H        79  POP73       0.0265
  9792 H14S         0.1700    21.8500    -8.1740 H        79  POP73       0.0265
  9793 C215         1.0840    23.3920    -6.9190 C.3      79  POP73      -0.0531
  9794 H15R         0.7690    22.8210    -5.9780 H        79  POP73       0.0265
  9795 H15S         0.4360    24.1870    -7.1430 H        79  POP73       0.0265
  9796 C216         2.4740    24.0120    -6.6190 C.3      79  POP73      -0.0533
  9797 H16R         2.8540    24.7000    -7.4270 H        79  POP73       0.0265
  9798 H16S         3.2200    23.2100    -6.5220 H        79  POP73       0.0265
  9799 C217         2.6900    24.7540    -5.2420 C.3      79  POP73      -0.0559
  9800 H17R         2.1080    24.1970    -4.4040 H        79  POP73       0.0263
  9801 H17S         2.1160    25.7760    -5.2830 H        79  POP73       0.0263
  9802 C218         4.1430    25.0060    -4.9320 C.3      79  POP73      -0.0653
  9803 H18R         4.5290    24.0560    -4.5700 H        79  POP73       0.0230
  9804 H18S         4.2260    25.7620    -4.1310 H        79  POP73       0.0230
  9805 H18T         4.6770    25.4030    -5.8750 H        79  POP73       0.0230
  9806 C33          4.3800    20.7110   -15.3440 C.3      79  POP73      -0.0441
  9807 H3X          3.3070    21.0170   -15.1590 H        79  POP73       0.0270
  9808 H3Y          4.8100    21.6610   -14.9740 H        79  POP73       0.0270
  9809 C34          4.7120    19.6440   -14.3920 C.3      79  POP73      -0.0526
  9810 H4X          5.8280    19.5840   -14.2830 H        79  POP73       0.0265
  9811 H4Y          4.4830    18.6450   -14.9000 H        79  POP73       0.0265
  9812 C35          4.0520    19.6600   -13.0650 C.3      79  POP73      -0.0530
  9813 H5X          3.0310    19.1620   -13.0850 H        79  POP73       0.0265
  9814 H5Y          3.8280    20.7510   -12.7690 H        79  POP73       0.0265
  9815 C36          4.9820    19.0660   -11.9560 C.3      79  POP73      -0.0531
  9816 H6X          5.8490    19.6600   -11.9640 H        79  POP73       0.0265
  9817 H6Y          5.1660    18.0200   -12.1400 H        79  POP73       0.0265
  9818 C37          4.3160    19.2270   -10.5580 C.3      79  POP73      -0.0531
  9819 H7X          3.6210    18.3610   -10.4150 H        79  POP73       0.0265
  9820 H7Y          3.8030    20.1990   -10.5440 H        79  POP73       0.0265
  9821 C38          5.3510    19.1300    -9.3840 C.3      79  POP73      -0.0531
  9822 H8X          6.1030    19.9920    -9.5540 H        79  POP73       0.0265
  9823 H8Y          5.9610    18.1890    -9.4650 H        79  POP73       0.0265
  9824 C39          4.6620    19.2580    -7.9850 C.3      79  POP73      -0.0531
  9825 H9X          3.7600    18.6070    -7.9100 H        79  POP73       0.0265
  9826 H9Y          4.5040    20.3410    -7.8900 H        79  POP73       0.0265
  9827 C310         5.5570    18.9370    -6.8150 C.3      79  POP73      -0.0531
  9828 H10X         6.4120    19.6400    -6.7950 H        79  POP73       0.0265
  9829 H10Y         5.9700    17.9280    -6.8400 H        79  POP73       0.0265
  9830 C311         4.6960    18.9470    -5.5160 C.3      79  POP73      -0.0531
  9831 H11X         3.8990    18.1330    -5.6440 H        79  POP73       0.0265
  9832 H11Y         4.3040    19.9970    -5.3780 H        79  POP73       0.0265
  9833 C312         5.5040    18.8280    -4.2540 C.3      79  POP73      -0.0531
  9834 H12X         6.2070    19.6810    -4.1900 H        79  POP73       0.0265
  9835 H12Y         5.9930    17.8000    -4.3060 H        79  POP73       0.0265
  9836 C313         4.6770    18.6630    -2.9850 C.3      79  POP73      -0.0531
  9837 H13X         3.9030    17.8780    -3.2340 H        79  POP73       0.0265
  9838 H13Y         4.0380    19.6080    -2.7410 H        79  POP73       0.0265
  9839 C314         5.4740    18.1320    -1.7690 C.3      79  POP73      -0.0533
  9840 H14X         6.4520    18.6130    -1.8410 H        79  POP73       0.0265
  9841 H14Y         5.5620    17.0000    -1.9200 H        79  POP73       0.0265
  9842 C315         4.7980    18.2950    -0.4090 C.3      79  POP73      -0.0559
  9843 H15X         3.7510    17.9500    -0.5070 H        79  POP73       0.0263
  9844 H15Y         4.6240    19.3560    -0.1250 H        79  POP73       0.0263
  9845 C316         5.5230    17.6750     0.7630 C.3      79  POP73      -0.0653
  9846 H16X         6.6190    18.0020     0.7080 H        79  POP73       0.0230
  9847 H16Y         5.5760    16.5940     0.6080 H        79  POP73       0.0230
  9848 H16Z         5.0090    17.9170     1.6790 H        79  POP73       0.0230
  9849 N           -3.5760   -25.0870   -22.8270 N.3      80  POP74       0.2385
  9850 C12         -3.8870   -24.5350   -21.4450 C.3      80  POP74      -0.0064
  9851 H12A        -2.9440   -24.2400   -20.9880 H        80  POP74       0.0838
  9852 H12B        -4.3470   -25.2960   -20.7910 H        80  POP74       0.0838
  9853 C13         -2.6390   -26.2590   -22.7750 C.3      80  POP74      -0.0417
  9854 H13A        -2.1810   -26.4210   -23.7120 H        80  POP74       0.0778
  9855 H13B        -1.8780   -26.1530   -21.9340 H        80  POP74       0.0778
  9856 H13C        -3.2480   -27.1600   -22.6430 H        80  POP74       0.0778
  9857 C14         -4.8000   -25.5570   -23.6210 C.3      80  POP74      -0.0417
  9858 H14A        -5.0860   -26.5620   -23.2080 H        80  POP74       0.0778
  9859 H14B        -5.6500   -24.8700   -23.4070 H        80  POP74       0.0778
  9860 H14C        -4.6600   -25.6140   -24.6640 H        80  POP74       0.0778
  9861 C15         -2.8200   -24.0210   -23.5620 C.3      80  POP74      -0.0417
  9862 H15A        -2.4620   -24.4100   -24.4750 H        80  POP74       0.0778
  9863 H15B        -1.9380   -23.6920   -23.0630 H        80  POP74       0.0778
  9864 H15C        -3.3800   -23.1250   -23.8460 H        80  POP74       0.0778
  9865 C11         -4.7770   -23.2170   -21.3550 C.3      80  POP74       0.0954
  9866 H11A        -4.3590   -22.4740   -22.0930 H        80  POP74       0.0618
  9867 H11B        -4.6540   -22.7630   -20.2940 H        80  POP74       0.0618
  9868 P           -7.0720   -24.3350   -20.5990 P.3      80  POP74       0.2645
  9869 O13         -8.0250   -25.1160   -21.3610 O.co2    80  POP74      -0.5105
  9870 O14         -7.5190   -23.3680   -19.6160 O.co2    80  POP74      -0.5105
  9871 O12         -6.1320   -23.5700   -21.5920 O.3      80  POP74      -0.3154
  9872 O11         -6.0160   -25.2750   -19.8800 O.3      80  POP74      -0.3181
  9873 C1          -6.3590   -26.4380   -19.1620 C.3      80  POP74       0.0845
  9874 HA          -6.6580   -27.2350   -19.8900 H        80  POP74       0.0591
  9875 HB          -7.2390   -26.2380   -18.4680 H        80  POP74       0.0591
  9876 C2          -5.2410   -27.0210   -18.2540 C.3      80  POP74       0.1155
  9877 HS          -4.5420   -27.6170   -18.9040 H        80  POP74       0.0649
  9878 O21         -5.7910   -27.7830   -17.1870 O.3      80  POP74      -0.3072
  9879 C21         -4.9420   -28.5630   -16.4530 C.2      80  POP74       0.2626
  9880 O22         -3.7950   -28.8210   -16.7590 O.2      80  POP74      -0.2650
  9881 C22         -5.7140   -29.2840   -15.3460 C.3      80  POP74       0.0332
  9882 H2R         -6.1870   -30.1800   -15.7280 H        80  POP74       0.0366
  9883 H2S         -6.6680   -28.6970   -15.1130 H        80  POP74       0.0366
  9884 C3          -4.3590   -25.9150   -17.6440 C.3      80  POP74       0.0860
  9885 HX          -3.9610   -25.3910   -18.5510 H        80  POP74       0.0593
  9886 HY          -3.5130   -26.3580   -16.9630 H        80  POP74       0.0593
  9887 O31         -5.3210   -25.1270   -16.8750 O.3      80  POP74      -0.3125
  9888 C31         -5.1330   -23.8450   -16.8210 C.2      80  POP74       0.2622
  9889 O32         -4.2530   -23.1840   -17.2610 O.2      80  POP74      -0.2650
  9890 C32         -6.3420   -23.2040   -16.1680 C.3      80  POP74       0.0332
  9891 H2X         -6.8160   -23.9440   -15.5000 H        80  POP74       0.0366
  9892 H2Y         -7.0220   -22.7030   -16.9070 H        80  POP74       0.0366
  9893 C23         -5.0690   -29.3980   -13.9470 C.3      80  POP74      -0.0441
  9894 H3R         -4.3640   -28.6040   -13.7380 H        80  POP74       0.0270
  9895 H3S         -4.4170   -30.3040   -13.9460 H        80  POP74       0.0270
  9896 C24         -6.0310   -29.5250   -12.7900 C.3      80  POP74      -0.0526
  9897 H4R         -6.7920   -30.3160   -12.9750 H        80  POP74       0.0265
  9898 H4S         -6.6830   -28.5330   -12.6780 H        80  POP74       0.0265
  9899 C25         -5.2370   -29.8630   -11.4850 C.3      80  POP74      -0.0530
  9900 H5R         -4.2440   -29.1820   -11.4540 H        80  POP74       0.0265
  9901 H5S         -4.8460   -30.9040   -11.6030 H        80  POP74       0.0265
  9902 C26         -5.9920   -29.7530   -10.1680 C.3      80  POP74      -0.0528
  9903 H6R         -6.8980   -30.4070   -10.2310 H        80  POP74       0.0265
  9904 H6S         -6.2890   -28.7200   -10.0310 H        80  POP74       0.0265
  9905 C27         -5.1600   -30.1710    -8.9210 C.3      80  POP74      -0.0496
  9906 H7R         -4.1360   -29.6070    -8.9530 H        80  POP74       0.0268
  9907 H7S         -4.8130   -31.2010    -8.9150 H        80  POP74       0.0268
  9908 C28         -5.9860   -30.1490    -7.6230 C.3      80  POP74      -0.0348
  9909 H8R         -5.2070   -30.4390    -6.8230 H        80  POP74       0.0307
  9910 H8S         -6.7400   -30.9570    -7.5890 H        80  POP74       0.0307
  9911 C29         -6.5850   -28.7800    -7.3850 C.2      80  POP74      -0.0879
  9912 H91         -7.6710   -28.6160    -7.3890 H        80  POP74       0.0569
  9913 C210        -5.8690   -27.7020    -6.9910 C.2      80  POP74      -0.0879
  9914 H101        -6.4220   -26.6680    -6.9480 H        80  POP74       0.0569
  9915 C211        -4.3790   -27.5870    -6.8860 C.3      80  POP74      -0.0348
  9916 H11R        -3.7940   -28.4880    -6.9840 H        80  POP74       0.0307
  9917 H11S        -4.0920   -27.3200    -5.8830 H        80  POP74       0.0307
  9918 C212        -3.7950   -26.5230    -7.9120 C.3      80  POP74      -0.0496
  9919 H12R        -2.6820   -26.5510    -7.8430 H        80  POP74       0.0268
  9920 H12S        -4.1680   -25.5310    -7.5860 H        80  POP74       0.0268
  9921 C213        -3.9650   -26.7470    -9.3820 C.3      80  POP74      -0.0528
  9922 H13R        -5.0300   -27.0230    -9.5980 H        80  POP74       0.0265
  9923 H13S        -3.3480   -27.6900    -9.6090 H        80  POP74       0.0265
  9924 C214        -3.4090   -25.6350   -10.2310 C.3      80  POP74      -0.0530
  9925 H14R        -2.2730   -25.4800   -10.0910 H        80  POP74       0.0265
  9926 H14S        -3.8920   -24.6550    -9.9710 H        80  POP74       0.0265
  9927 C215        -3.6540   -25.8950   -11.7510 C.3      80  POP74      -0.0531
  9928 H15R        -4.7030   -26.0190   -12.0290 H        80  POP74       0.0265
  9929 H15S        -3.1710   -26.8240   -11.9870 H        80  POP74       0.0265
  9930 C216        -2.9080   -24.8740   -12.6650 C.3      80  POP74      -0.0533
  9931 H16R        -1.8680   -24.7260   -12.3590 H        80  POP74       0.0265
  9932 H16S        -3.5050   -23.9210   -12.5780 H        80  POP74       0.0265
  9933 C217        -3.0090   -25.3020   -14.1490 C.3      80  POP74      -0.0559
  9934 H17R        -4.0610   -25.1640   -14.4580 H        80  POP74       0.0263
  9935 H17S        -2.8500   -26.3710   -14.4120 H        80  POP74       0.0263
  9936 C218        -2.1270   -24.4820   -15.1120 C.3      80  POP74      -0.0653
  9937 H18R        -2.1910   -24.7370   -16.1910 H        80  POP74       0.0230
  9938 H18S        -1.0780   -24.5620   -14.8910 H        80  POP74       0.0230
  9939 H18T        -2.5640   -23.4330   -15.0210 H        80  POP74       0.0230
  9940 C33         -5.8500   -21.9870   -15.2590 C.3      80  POP74      -0.0441
  9941 H3X         -5.6040   -21.1660   -16.0240 H        80  POP74       0.0270
  9942 H3Y         -4.8920   -22.0830   -14.7100 H        80  POP74       0.0270
  9943 C34         -6.9180   -21.6860   -14.2190 C.3      80  POP74      -0.0526
  9944 H4X         -8.0170   -21.8950   -14.4390 H        80  POP74       0.0265
  9945 H4Y         -6.7620   -20.6070   -14.0330 H        80  POP74       0.0265
  9946 C35         -6.5190   -22.4450   -12.9100 C.3      80  POP74      -0.0530
  9947 H5X         -5.4530   -22.2340   -12.6800 H        80  POP74       0.0265
  9948 H5Y         -6.6000   -23.5490   -13.1170 H        80  POP74       0.0265
  9949 C36         -7.2860   -22.0130   -11.6680 C.3      80  POP74      -0.0531
  9950 H6X         -8.3910   -22.0790   -11.9180 H        80  POP74       0.0265
  9951 H6Y         -7.0810   -20.9040   -11.6400 H        80  POP74       0.0265
  9952 C37         -6.8350   -22.7440   -10.3810 C.3      80  POP74      -0.0531
  9953 H7X         -7.0560   -22.1980    -9.4170 H        80  POP74       0.0265
  9954 H7Y         -5.7090   -22.8090   -10.4080 H        80  POP74       0.0265
  9955 C38         -7.3830   -24.1530   -10.3260 C.3      80  POP74      -0.0531
  9956 H8X         -6.5070   -24.8110   -10.0800 H        80  POP74       0.0265
  9957 H8Y         -7.6350   -24.5070   -11.4030 H        80  POP74       0.0265
  9958 C39         -8.5160   -24.4210    -9.3750 C.3      80  POP74      -0.0531
  9959 H9X         -9.3620   -23.6990    -9.5500 H        80  POP74       0.0265
  9960 H9Y         -8.2090   -24.1930    -8.3020 H        80  POP74       0.0265
  9961 C310        -8.8910   -25.8830    -9.4480 C.3      80  POP74      -0.0531
  9962 H10X        -8.1110   -26.4710    -8.8350 H        80  POP74       0.0265
  9963 H10Y        -8.9560   -26.3350   -10.4020 H        80  POP74       0.0265
  9964 C311       -10.1590   -26.1310    -8.5600 C.3      80  POP74      -0.0531
  9965 H11X       -10.6060   -27.1360    -8.6550 H        80  POP74       0.0265
  9966 H11Y       -10.9000   -25.4530    -8.9160 H        80  POP74       0.0265
  9967 C312        -9.8710   -25.9170    -7.0680 C.3      80  POP74      -0.0531
  9968 H12X        -9.6690   -24.9120    -6.8490 H        80  POP74       0.0265
  9969 H12Y        -8.9710   -26.5780    -6.8620 H        80  POP74       0.0265
  9970 C313       -11.0840   -26.5680    -6.2490 C.3      80  POP74      -0.0531
  9971 H13X       -11.2520   -27.5130    -6.7460 H        80  POP74       0.0265
  9972 H13Y       -12.0170   -25.9880    -6.4050 H        80  POP74       0.0265
  9973 C314       -10.6210   -26.6700    -4.7520 C.3      80  POP74      -0.0533
  9974 H14X       -10.4420   -25.5870    -4.4860 H        80  POP74       0.0265
  9975 H14Y        -9.6430   -27.2850    -4.8090 H        80  POP74       0.0265
  9976 C315       -11.6740   -27.2210    -3.8760 C.3      80  POP74      -0.0559
  9977 H15X       -12.0530   -28.0950    -4.4310 H        80  POP74       0.0263
  9978 H15Y       -12.4880   -26.5140    -3.6480 H        80  POP74       0.0263
  9979 C316       -11.2240   -27.6760    -2.4750 C.3      80  POP74      -0.0653
  9980 H16X       -10.3740   -28.4500    -2.6450 H        80  POP74       0.0230
  9981 H16Y       -12.0820   -28.2060    -2.0090 H        80  POP74       0.0230
  9982 H16Z       -10.8720   -26.8650    -1.8230 H        80  POP74       0.0230
  9983 N            0.5290    10.1930   -16.8070 N.3      81  POP75       0.2385
  9984 C12          1.5870    11.2210   -17.1930 C.3      81  POP75      -0.0064
  9985 H12A         1.2460    11.7990   -18.0780 H        81  POP75       0.0838
  9986 H12B         2.4790    10.6720   -17.6030 H        81  POP75       0.0838
  9987 C13          1.0060     9.3090   -15.6760 C.3      81  POP75      -0.0417
  9988 H13A         0.1370     8.7420   -15.3210 H        81  POP75       0.0778
  9989 H13B         1.7660     8.6600   -15.9130 H        81  POP75       0.0778
  9990 H13C         1.2040     9.9240   -14.7700 H        81  POP75       0.0778
  9991 C14         -0.6660    10.8730   -16.2510 C.3      81  POP75      -0.0417
  9992 H14A        -1.1170    11.5770   -16.9310 H        81  POP75       0.0778
  9993 H14B        -1.4080    10.1980   -15.9460 H        81  POP75       0.0778
  9994 H14C        -0.3050    11.4490   -15.3530 H        81  POP75       0.0778
  9995 C15          0.1670     9.2940   -17.8400 C.3      81  POP75      -0.0417
  9996 H15A        -0.8460     8.8030   -17.6100 H        81  POP75       0.0778
  9997 H15B         0.8250     8.4450   -17.8770 H        81  POP75       0.0778
  9998 H15C        -0.0150     9.7880   -18.8000 H        81  POP75       0.0778
  9999 C11          2.1480    12.1450   -16.1620 C.3      81  POP75       0.0954
 10000 H11A         2.5660    11.5460   -15.3200 H        81  POP75       0.0618
 10001 H11B         1.3460    12.8560   -15.7020 H        81  POP75       0.0618
 10002 P            4.3880    12.3890   -17.6560 P.3      81  POP75       0.2645
 10003 O13          3.7980    12.4110   -19.0240 O.co2    81  POP75      -0.5105
 10004 O14          4.7470    11.0850   -17.1330 O.co2    81  POP75      -0.5105
 10005 O12          3.2340    12.9390   -16.7290 O.3      81  POP75      -0.3154
 10006 O11          5.4290    13.5020   -17.4350 O.3      81  POP75      -0.3181
 10007 C1           5.7770    13.9040   -16.1010 C.3      81  POP75       0.0845
 10008 HA           6.8800    13.7120   -16.0210 H        81  POP75       0.0591
 10009 HB           5.4210    13.2080   -15.3160 H        81  POP75       0.0591
 10010 C2           5.4680    15.4350   -15.7720 C.3      81  POP75       0.1155
 10011 HS           5.7940    15.5330   -14.7370 H        81  POP75       0.0649
 10012 O21          4.1320    15.8080   -15.8670 O.3      81  POP75      -0.3072
 10013 C21          3.4050    15.3180   -14.8380 C.2      81  POP75       0.2626
 10014 O22          3.8470    14.7440   -13.9130 O.2      81  POP75      -0.2650
 10015 C22          1.9860    15.8850   -14.9190 C.3      81  POP75       0.0332
 10016 H2R          1.5620    15.4220   -15.8500 H        81  POP75       0.0366
 10017 H2S          2.0940    16.9450   -15.1250 H        81  POP75       0.0366
 10018 C3           6.3950    16.3350   -16.5580 C.3      81  POP75       0.0860
 10019 HX           5.9770    16.7210   -17.4470 H        81  POP75       0.0593
 10020 HY           7.3260    15.7220   -16.7980 H        81  POP75       0.0593
 10021 O31          6.7390    17.5390   -15.8270 O.3      81  POP75      -0.3125
 10022 C31          7.9230    18.1290   -16.2600 C.2      81  POP75       0.2622
 10023 O32          8.3990    17.9370   -17.3480 O.2      81  POP75      -0.2650
 10024 C32          8.4810    19.1070   -15.1970 C.3      81  POP75       0.0332
 10025 H2X          7.7760    19.8980   -15.0030 H        81  POP75       0.0366
 10026 H2Y          9.3210    19.6380   -15.7390 H        81  POP75       0.0366
 10027 C23          1.1310    15.5650   -13.5940 C.3      81  POP75      -0.0441
 10028 H3R          1.2140    14.4240   -13.4060 H        81  POP75       0.0270
 10029 H3S          0.0760    15.8380   -13.8530 H        81  POP75       0.0270
 10030 C24          1.5770    16.2450   -12.3270 C.3      81  POP75      -0.0526
 10031 H4R          1.5220    17.3440   -12.3820 H        81  POP75       0.0265
 10032 H4S          2.6710    16.1040   -11.9850 H        81  POP75       0.0265
 10033 C25          0.8430    15.7920   -11.0700 C.3      81  POP75      -0.0530
 10034 H5R          1.2540    14.8640   -10.6450 H        81  POP75       0.0265
 10035 H5S         -0.2330    15.5430   -11.4130 H        81  POP75       0.0265
 10036 C26          0.7330    16.9510   -10.0040 C.3      81  POP75      -0.0528
 10037 H6R         -0.0020    17.7910   -10.2240 H        81  POP75       0.0265
 10038 H6S          1.6610    17.5010   -10.0860 H        81  POP75       0.0265
 10039 C27          0.4680    16.2940    -8.6660 C.3      81  POP75      -0.0496
 10040 H7R          1.0890    15.3870    -8.5050 H        81  POP75       0.0268
 10041 H7S         -0.5740    15.9010    -8.7120 H        81  POP75       0.0268
 10042 C28          0.7070    17.2250    -7.4690 C.3      81  POP75      -0.0348
 10043 H8R          1.7600    17.6020    -7.5300 H        81  POP75       0.0307
 10044 H8S          0.6120    16.6150    -6.4490 H        81  POP75       0.0307
 10045 C29         -0.2340    18.4620    -7.4910 C.2      81  POP75      -0.0879
 10046 H91          0.2810    19.3930    -7.9090 H        81  POP75       0.0569
 10047 C210        -1.4640    18.4550    -6.9740 C.2      81  POP75      -0.0879
 10048 H101        -2.0490    19.3760    -6.8770 H        81  POP75       0.0569
 10049 C211        -2.0820    17.3640    -6.1370 C.3      81  POP75      -0.0348
 10050 H11R        -1.4270    16.4560    -5.9240 H        81  POP75       0.0307
 10051 H11S        -3.0890    17.1830    -6.6390 H        81  POP75       0.0307
 10052 C212        -2.3320    18.0140    -4.7380 C.3      81  POP75      -0.0496
 10053 H12R        -3.1470    18.8010    -4.8600 H        81  POP75       0.0268
 10054 H12S        -1.4600    18.4650    -4.2260 H        81  POP75       0.0268
 10055 C213        -2.8220    16.9730    -3.7160 C.3      81  POP75      -0.0528
 10056 H13R        -1.8580    16.3300    -3.6900 H        81  POP75       0.0265
 10057 H13S        -3.5430    16.2600    -4.1110 H        81  POP75       0.0265
 10058 C214        -3.1980    17.4840    -2.3250 C.3      81  POP75      -0.0530
 10059 H14R        -4.1230    18.0510    -2.3500 H        81  POP75       0.0265
 10060 H14S        -2.4960    18.1550    -1.9700 H        81  POP75       0.0265
 10061 C215        -3.4340    16.3840    -1.1900 C.3      81  POP75      -0.0531
 10062 H15R        -2.6900    15.6590    -1.3120 H        81  POP75       0.0265
 10063 H15S        -4.2560    15.8450    -1.5830 H        81  POP75       0.0265
 10064 C216        -3.6700    16.7990     0.2950 C.3      81  POP75      -0.0533
 10065 H16R        -4.1530    17.8730     0.2920 H        81  POP75       0.0265
 10066 H16S        -2.6550    16.8960     0.7380 H        81  POP75       0.0265
 10067 C217        -4.5310    15.9270     1.2120 C.3      81  POP75      -0.0559
 10068 H17R        -3.9310    15.0120     1.3960 H        81  POP75       0.0263
 10069 H17S        -5.4170    15.5930     0.6500 H        81  POP75       0.0263
 10070 C218        -5.1150    16.3340     2.5590 C.3      81  POP75      -0.0653
 10071 H18R        -5.8970    15.6250     2.9360 H        81  POP75       0.0230
 10072 H18S        -5.6230    17.2630     2.4010 H        81  POP75       0.0230
 10073 H18T        -4.3200    16.4030     3.3760 H        81  POP75       0.0230
 10074 C33          9.0810    18.5190   -13.8820 C.3      81  POP75      -0.0441
 10075 H3X          9.9690    18.0730   -14.1610 H        81  POP75       0.0270
 10076 H3Y          8.4090    17.7490   -13.4040 H        81  POP75       0.0270
 10077 C34          9.3600    19.6760   -12.9470 C.3      81  POP75      -0.0526
 10078 H4X          8.6030    20.3860   -12.5870 H        81  POP75       0.0265
 10079 H4Y          9.9470    20.2840   -13.6220 H        81  POP75       0.0265
 10080 C35         10.2740    19.3520   -11.6970 C.3      81  POP75      -0.0530
 10081 H5X         10.6890    20.2820   -11.2640 H        81  POP75       0.0265
 10082 H5Y         11.1280    18.7460   -11.9540 H        81  POP75       0.0265
 10083 C36          9.4740    18.6030   -10.7080 C.3      81  POP75      -0.0531
 10084 H6X          9.2030    17.5480   -11.0160 H        81  POP75       0.0265
 10085 H6Y          8.4700    19.0870   -10.6730 H        81  POP75       0.0265
 10086 C37         10.0110    18.6490    -9.2490 C.3      81  POP75      -0.0531
 10087 H7X          9.6450    19.6130    -8.8490 H        81  POP75       0.0265
 10088 H7Y         11.1350    18.4300    -9.1900 H        81  POP75       0.0265
 10089 C38          9.1810    17.5520    -8.4280 C.3      81  POP75      -0.0531
 10090 H8X          9.5620    16.5890    -8.8560 H        81  POP75       0.0265
 10091 H8Y          8.1130    17.7250    -8.5550 H        81  POP75       0.0265
 10092 C39          9.4890    17.7040    -6.9320 C.3      81  POP75      -0.0531
 10093 H9X          9.2830    18.7220    -6.6010 H        81  POP75       0.0265
 10094 H9Y         10.5060    17.4470    -6.6510 H        81  POP75       0.0265
 10095 C310         8.6980    16.7780    -6.0020 C.3      81  POP75      -0.0531
 10096 H10X         9.0820    15.7790    -6.2480 H        81  POP75       0.0265
 10097 H10Y         7.6060    16.8070    -6.1180 H        81  POP75       0.0265
 10098 C311         8.9540    17.0230    -4.5490 C.3      81  POP75      -0.0531
 10099 H11X         8.4910    17.9480    -4.2890 H        81  POP75       0.0265
 10100 H11Y        10.0690    17.1400    -4.2120 H        81  POP75       0.0265
 10101 C312         8.4670    15.9110    -3.5510 C.3      81  POP75      -0.0531
 10102 H12X         9.0930    14.9380    -3.7590 H        81  POP75       0.0265
 10103 H12Y         7.4170    15.5600    -3.7250 H        81  POP75       0.0265
 10104 C313         8.6990    16.2010    -2.0720 C.3      81  POP75      -0.0531
 10105 H13X         8.0950    17.0400    -1.8210 H        81  POP75       0.0265
 10106 H13Y         9.8040    16.5390    -1.9870 H        81  POP75       0.0265
 10107 C314         8.4260    15.0000    -1.1340 C.3      81  POP75      -0.0533
 10108 H14X         8.7520    15.2160    -0.1000 H        81  POP75       0.0265
 10109 H14Y         9.0110    14.1220    -1.5530 H        81  POP75       0.0265
 10110 C315         6.9620    14.5270    -0.8570 C.3      81  POP75      -0.0559
 10111 H15X         6.6000    13.8270    -1.5920 H        81  POP75       0.0263
 10112 H15Y         6.2830    15.3690    -0.8270 H        81  POP75       0.0263
 10113 C316         6.7440    13.9300     0.5340 C.3      81  POP75      -0.0653
 10114 H16X         5.6630    13.8150     0.5820 H        81  POP75       0.0230
 10115 H16Y         6.9820    14.6940     1.3230 H        81  POP75       0.0230
 10116 H16Z         7.4450    13.0950     0.7660 H        81  POP75       0.0230
 10117 N           -5.2170    27.9970   -26.7860 N.3      82  POP76       0.2385
 10118 C12         -5.1620    28.9960   -25.6670 C.3      82  POP76      -0.0064
 10119 H12A        -4.1050    29.2520   -25.3390 H        82  POP76       0.0838
 10120 H12B        -5.6120    28.6430   -24.7480 H        82  POP76       0.0838
 10121 C13         -4.5570    26.7340   -26.3580 C.3      82  POP76      -0.0417
 10122 H13A        -4.4570    25.8670   -26.9950 H        82  POP76       0.0778
 10123 H13B        -3.4630    26.7710   -26.0950 H        82  POP76       0.0778
 10124 H13C        -5.1010    26.3030   -25.4620 H        82  POP76       0.0778
 10125 C14         -6.5690    27.6010   -27.3340 C.3      82  POP76      -0.0417
 10126 H14A        -6.4290    26.8390   -28.0490 H        82  POP76       0.0778
 10127 H14B        -7.2800    27.2880   -26.5700 H        82  POP76       0.0778
 10128 H14C        -7.0900    28.4500   -27.8270 H        82  POP76       0.0778
 10129 C15         -4.5440    28.5580   -28.0230 C.3      82  POP76      -0.0417
 10130 H15A        -3.5300    28.6770   -27.7630 H        82  POP76       0.0778
 10131 H15B        -4.9950    29.4320   -28.4320 H        82  POP76       0.0778
 10132 H15C        -4.5470    27.7650   -28.7550 H        82  POP76       0.0778
 10133 C11         -5.7420    30.3980   -25.8790 C.3      82  POP76       0.0954
 10134 H11A        -6.7760    30.3650   -26.4480 H        82  POP76       0.0618
 10135 H11B        -5.0820    30.9140   -26.6260 H        82  POP76       0.0618
 10136 P           -6.7820    30.8190   -23.5200 P.3      82  POP76       0.2645
 10137 O13         -6.5930    29.3630   -23.2760 O.co2    82  POP76      -0.5105
 10138 O14         -8.1880    31.3140   -23.6870 O.co2    82  POP76      -0.5105
 10139 O12         -5.8410    31.2210   -24.6580 O.3      82  POP76      -0.3154
 10140 O11         -6.0920    31.5900   -22.3630 O.3      82  POP76      -0.3181
 10141 C1          -4.7220    31.9970   -22.4450 C.3      82  POP76       0.0845
 10142 HA          -4.4760    32.6090   -21.5390 H        82  POP76       0.0591
 10143 HB          -4.5150    32.6740   -23.3040 H        82  POP76       0.0591
 10144 C2          -3.6610    30.8050   -22.5460 C.3      82  POP76       0.1155
 10145 HS          -3.9930    30.1530   -23.3580 H        82  POP76       0.0649
 10146 O21         -3.6630    30.1230   -21.3030 O.3      82  POP76      -0.3072
 10147 C21         -2.9890    28.9490   -21.1850 C.2      82  POP76       0.2626
 10148 O22         -2.5360    28.3490   -22.1440 O.2      82  POP76      -0.2650
 10149 C22         -2.7430    28.6470   -19.7150 C.3      82  POP76       0.0332
 10150 H2R         -3.4310    29.2620   -19.1120 H        82  POP76       0.0366
 10151 H2S         -1.6760    29.0330   -19.4630 H        82  POP76       0.0366
 10152 C3          -2.2200    31.4410   -22.7720 C.3      82  POP76       0.0860
 10153 HX          -2.2530    31.9170   -23.8200 H        82  POP76       0.0593
 10154 HY          -1.4500    30.5480   -22.7040 H        82  POP76       0.0593
 10155 O31         -1.9350    32.4660   -21.8240 O.3      82  POP76      -0.3125
 10156 C31         -1.0420    32.3360   -21.0400 C.2      82  POP76       0.2622
 10157 O32         -0.4680    31.2780   -20.6600 O.2      82  POP76      -0.2650
 10158 C32         -0.6000    33.7440   -20.5060 C.3      82  POP76       0.0332
 10159 H2X         -1.5120    34.3150   -20.3550 H        82  POP76       0.0366
 10160 H2Y         -0.1000    34.1550   -21.4450 H        82  POP76       0.0366
 10161 C23         -3.0960    27.1340   -19.3310 C.3      82  POP76      -0.0441
 10162 H3R         -3.0230    26.5680   -20.2830 H        82  POP76       0.0270
 10163 H3S         -4.1430    27.1910   -19.0230 H        82  POP76       0.0270
 10164 C24         -2.2400    26.5950   -18.1850 C.3      82  POP76      -0.0526
 10165 H4R         -1.2060    26.5670   -18.6290 H        82  POP76       0.0265
 10166 H4S         -2.6120    25.5160   -17.8560 H        82  POP76       0.0265
 10167 C25         -2.3750    27.4240   -16.9510 C.3      82  POP76      -0.0530
 10168 H5R         -3.4330    27.7090   -16.7430 H        82  POP76       0.0265
 10169 H5S         -1.8320    28.3610   -17.0450 H        82  POP76       0.0265
 10170 C26         -1.7780    26.7490   -15.6980 C.3      82  POP76      -0.0528
 10171 H6R         -0.8130    26.3230   -15.9440 H        82  POP76       0.0265
 10172 H6S         -2.3660    25.9090   -15.3490 H        82  POP76       0.0265
 10173 C27         -1.4840    27.7530   -14.6180 C.3      82  POP76      -0.0496
 10174 H7R         -0.7990    28.5190   -14.9260 H        82  POP76       0.0268
 10175 H7S         -0.9330    27.2380   -13.7280 H        82  POP76       0.0268
 10176 C28         -2.6250    28.5030   -14.0320 C.3      82  POP76      -0.0348
 10177 H8R         -3.0860    29.1040   -14.8370 H        82  POP76       0.0307
 10178 H8S         -2.1810    29.2420   -13.3450 H        82  POP76       0.0307
 10179 C29         -3.7060    27.7830   -13.3450 C.2      82  POP76      -0.0879
 10180 H91         -4.4840    27.3170   -13.9240 H        82  POP76       0.0569
 10181 C210        -3.8060    27.6700   -11.9720 C.2      82  POP76      -0.0879
 10182 H101        -4.6800    27.0370   -11.6870 H        82  POP76       0.0569
 10183 C211        -2.8860    28.2730   -10.9410 C.3      82  POP76      -0.0348
 10184 H11R        -3.4260    29.0720   -10.4200 H        82  POP76       0.0307
 10185 H11S        -1.9390    28.6900   -11.3920 H        82  POP76       0.0307
 10186 C212        -2.4850    27.2090    -9.8870 C.3      82  POP76      -0.0496
 10187 H12R        -2.0840    26.3080   -10.3130 H        82  POP76       0.0268
 10188 H12S        -3.4310    26.8570    -9.4030 H        82  POP76       0.0268
 10189 C213        -1.5310    27.6920    -8.7450 C.3      82  POP76      -0.0528
 10190 H13R        -1.9400    28.6300    -8.3230 H        82  POP76       0.0265
 10191 H13S        -0.5430    27.8050    -9.1690 H        82  POP76       0.0265
 10192 C214        -1.3790    26.6190    -7.6390 C.3      82  POP76      -0.0530
 10193 H14R        -1.2920    25.5870    -8.0880 H        82  POP76       0.0265
 10194 H14S        -2.2980    26.5040    -6.9110 H        82  POP76       0.0265
 10195 C215        -0.1900    26.9400    -6.6750 C.3      82  POP76      -0.0531
 10196 H15R         0.8060    26.6120    -7.0790 H        82  POP76       0.0265
 10197 H15S        -0.4290    26.4250    -5.7310 H        82  POP76       0.0265
 10198 C216        -0.3140    28.4120    -6.2320 C.3      82  POP76      -0.0533
 10199 H16R        -1.3720    28.6870    -6.0740 H        82  POP76       0.0265
 10200 H16S        -0.0250    29.0740    -7.0310 H        82  POP76       0.0265
 10201 C217         0.6420    28.7320    -5.0410 C.3      82  POP76      -0.0559
 10202 H17R         1.5990    29.1660    -5.4300 H        82  POP76       0.0263
 10203 H17S         0.8580    27.8130    -4.4270 H        82  POP76       0.0263
 10204 C218        -0.0760    29.5150    -3.9080 C.3      82  POP76      -0.0653
 10205 H18R        -0.9630    28.9580    -3.4890 H        82  POP76       0.0230
 10206 H18S        -0.5620    30.3990    -4.3620 H        82  POP76       0.0230
 10207 H18T         0.8040    29.6420    -3.2020 H        82  POP76       0.0230
 10208 C33          0.3490    33.6480   -19.3580 C.3      82  POP76      -0.0441
 10209 H3X          0.6540    34.6690   -19.0880 H        82  POP76       0.0270
 10210 H3Y          1.2720    33.0710   -19.6950 H        82  POP76       0.0270
 10211 C34         -0.1360    32.8670   -18.1260 C.3      82  POP76      -0.0526
 10212 H4X         -0.0730    31.7720   -18.2970 H        82  POP76       0.0265
 10213 H4Y         -1.1530    33.1300   -17.7310 H        82  POP76       0.0265
 10214 C35          0.7270    33.1290   -16.8560 C.3      82  POP76      -0.0530
 10215 H5X          0.9000    34.1850   -16.5240 H        82  POP76       0.0265
 10216 H5Y          1.7100    32.7480   -17.2170 H        82  POP76       0.0265
 10217 C36          0.2580    32.3370   -15.6220 C.3      82  POP76      -0.0531
 10218 H6X          0.5160    31.2660   -15.8300 H        82  POP76       0.0265
 10219 H6Y         -0.8260    32.4890   -15.5010 H        82  POP76       0.0265
 10220 C37          0.9880    32.5810   -14.2500 C.3      82  POP76      -0.0531
 10221 H7X          0.9150    33.6750   -14.0200 H        82  POP76       0.0265
 10222 H7Y          2.1200    32.4190   -14.4350 H        82  POP76       0.0265
 10223 C38          0.5230    31.5270   -13.2230 C.3      82  POP76      -0.0531
 10224 H8X          0.7970    30.5350   -13.5780 H        82  POP76       0.0265
 10225 H8Y         -0.5710    31.4320   -13.1240 H        82  POP76       0.0265
 10226 C39          1.1120    31.7530   -11.8340 C.3      82  POP76      -0.0531
 10227 H9X          0.7230    32.7400   -11.4330 H        82  POP76       0.0265
 10228 H9Y          2.2450    31.9880   -12.0000 H        82  POP76       0.0265
 10229 C310         0.7950    30.6150   -10.7860 C.3      82  POP76      -0.0531
 10230 H10X         0.8590    29.5900   -11.2470 H        82  POP76       0.0265
 10231 H10Y        -0.2870    30.6380   -10.5750 H        82  POP76       0.0265
 10232 C311         1.5400    30.5900    -9.4800 C.3      82  POP76      -0.0531
 10233 H11X         2.5460    30.1790    -9.7530 H        82  POP76       0.0265
 10234 H11Y         1.0200    29.7560    -8.8660 H        82  POP76       0.0265
 10235 C312         1.6400    31.9800    -8.7800 C.3      82  POP76      -0.0531
 10236 H12X         0.5840    32.4380    -8.6860 H        82  POP76       0.0265
 10237 H12Y         2.2470    32.6920    -9.4260 H        82  POP76       0.0265
 10238 C313         2.0930    31.8640    -7.3070 C.3      82  POP76      -0.0531
 10239 H13X         2.9840    31.3370    -7.1330 H        82  POP76       0.0265
 10240 H13Y         1.3530    31.2930    -6.8430 H        82  POP76       0.0265
 10241 C314         2.0480    33.3030    -6.6540 C.3      82  POP76      -0.0533
 10242 H14X         1.0710    33.7760    -6.8550 H        82  POP76       0.0265
 10243 H14Y         2.7050    33.9050    -7.2850 H        82  POP76       0.0265
 10244 C315         2.4070    33.2030    -5.1760 C.3      82  POP76      -0.0559
 10245 H15X         3.2410    32.5820    -5.0560 H        82  POP76       0.0263
 10246 H15Y         1.4860    32.9460    -4.6470 H        82  POP76       0.0263
 10247 C316         2.7020    34.5670    -4.5650 C.3      82  POP76      -0.0653
 10248 H16X         1.8950    35.2470    -4.4950 H        82  POP76       0.0230
 10249 H16Y         3.3520    35.1490    -5.3060 H        82  POP76       0.0230
 10250 H16Z         3.1540    34.4690    -3.5850 H        82  POP76       0.0230
 10251 N            8.9830    24.9050   -25.1880 N.3      83  POP77       0.2385
 10252 C12          9.5770    25.7290   -24.0280 C.3      83  POP77      -0.0064
 10253 H12A         9.8670    26.6340   -24.4480 H        83  POP77       0.0838
 10254 H12B        10.4890    25.2800   -23.6010 H        83  POP77       0.0838
 10255 C13          8.1230    23.8370   -24.6460 C.3      83  POP77      -0.0417
 10256 H13A         8.6220    23.1120   -23.9970 H        83  POP77       0.0778
 10257 H13B         7.2610    24.1030   -24.0870 H        83  POP77       0.0778
 10258 H13C         7.7660    23.1870   -25.4680 H        83  POP77       0.0778
 10259 C14          8.2790    25.8770   -26.1320 C.3      83  POP77      -0.0417
 10260 H14A         7.5050    26.3570   -25.6030 H        83  POP77       0.0778
 10261 H14B         8.8660    26.5040   -26.6750 H        83  POP77       0.0778
 10262 H14C         7.8120    25.2370   -26.8760 H        83  POP77       0.0778
 10263 C15         10.0960    24.2540   -25.8740 C.3      83  POP77      -0.0417
 10264 H15A         9.8590    23.6140   -26.6480 H        83  POP77       0.0778
 10265 H15B        10.6770    23.7170   -25.1210 H        83  POP77       0.0778
 10266 H15C        10.8280    24.9790   -26.1650 H        83  POP77       0.0778
 10267 C11          8.6870    26.2310   -22.7940 C.3      83  POP77       0.0954
 10268 H11A         9.2630    26.7890   -22.0510 H        83  POP77       0.0618
 10269 H11B         8.1480    25.3620   -22.2440 H        83  POP77       0.0618
 10270 P            6.1830    27.1220   -22.7540 P.3      83  POP77       0.2645
 10271 O13          5.4540    25.8100   -22.6880 O.co2    83  POP77      -0.5105
 10272 O14          5.5060    28.2820   -23.4180 O.co2    83  POP77      -0.5105
 10273 O12          7.6290    26.9690   -23.2980 O.3      83  POP77      -0.3154
 10274 O11          6.4320    27.6730   -21.2780 O.3      83  POP77      -0.3181
 10275 C1           6.7890    29.0670   -21.0990 C.3      83  POP77       0.0845
 10276 HA           6.8810    29.6340   -22.0460 H        83  POP77       0.0591
 10277 HB           7.9070    29.0240   -20.6720 H        83  POP77       0.0591
 10278 C2           5.8980    29.8440   -20.0300 C.3      83  POP77       0.1155
 10279 HS           6.3110    30.8550   -19.8440 H        83  POP77       0.0649
 10280 O21          5.7100    29.1520   -18.7510 O.3      83  POP77      -0.3072
 10281 C21          6.7790    29.1500   -17.9860 C.2      83  POP77       0.2626
 10282 O22          7.7630    29.8810   -18.1190 O.2      83  POP77      -0.2650
 10283 C22          6.5860    28.2010   -16.7720 C.3      83  POP77       0.0332
 10284 H2R          6.2970    27.2200   -17.0660 H        83  POP77       0.0366
 10285 H2S          5.8400    28.6300   -16.0960 H        83  POP77       0.0366
 10286 C3           4.5300    30.0490   -20.7570 C.3      83  POP77       0.0860
 10287 HX           4.2950    29.0740   -21.3010 H        83  POP77       0.0593
 10288 HY           4.6370    30.7990   -21.4760 H        83  POP77       0.0593
 10289 O31          3.4210    30.3480   -19.8680 O.3      83  POP77      -0.3125
 10290 C31          2.9080    29.3030   -19.2060 C.2      83  POP77       0.2622
 10291 O32          3.1280    28.1040   -19.3900 O.2      83  POP77      -0.2650
 10292 C32          2.0030    29.8850   -18.0550 C.3      83  POP77       0.0332
 10293 H2X          1.1240    30.1830   -18.5700 H        83  POP77       0.0366
 10294 H2Y          2.5670    30.7720   -17.7530 H        83  POP77       0.0366
 10295 C23          7.9400    28.0640   -15.9620 C.3      83  POP77      -0.0441
 10296 H3R          8.1910    29.0930   -15.5830 H        83  POP77       0.0270
 10297 H3S          8.6960    27.6850   -16.7540 H        83  POP77       0.0270
 10298 C24          7.8210    26.9400   -14.8360 C.3      83  POP77      -0.0526
 10299 H4R          7.0380    27.3220   -14.1660 H        83  POP77       0.0265
 10300 H4S          8.7620    26.8350   -14.2080 H        83  POP77       0.0265
 10301 C25          7.5250    25.5380   -15.3980 C.3      83  POP77      -0.0530
 10302 H5R          8.3020    25.2550   -16.1630 H        83  POP77       0.0265
 10303 H5S          6.5370    25.5600   -15.9240 H        83  POP77       0.0265
 10304 C26          7.4350    24.3140   -14.4690 C.3      83  POP77      -0.0528
 10305 H6R          8.4450    24.2440   -13.9380 H        83  POP77       0.0265
 10306 H6S          7.2450    23.3880   -14.9960 H        83  POP77       0.0265
 10307 C27          6.3400    24.3950   -13.2680 C.3      83  POP77      -0.0496
 10308 H7R          5.3140    24.3700   -13.6800 H        83  POP77       0.0268
 10309 H7S          6.3920    25.3940   -12.8130 H        83  POP77       0.0268
 10310 C28          6.6930    23.3300   -12.2570 C.3      83  POP77      -0.0348
 10311 H8R          7.7510    23.4150   -11.9800 H        83  POP77       0.0307
 10312 H8S          6.6480    22.2890   -12.7430 H        83  POP77       0.0307
 10313 C29          5.7370    23.3720   -11.0750 C.2      83  POP77      -0.0879
 10314 H91          4.7660    22.9790   -11.3780 H        83  POP77       0.0569
 10315 C210         5.9460    24.0180    -9.8950 C.2      83  POP77      -0.0879
 10316 H101         5.1190    23.8370    -9.1960 H        83  POP77       0.0569
 10317 C211         7.2320    24.5220    -9.3320 C.3      83  POP77      -0.0348
 10318 H11R         7.1390    25.6120    -9.3060 H        83  POP77       0.0307
 10319 H11S         8.0580    24.2010    -9.9280 H        83  POP77       0.0307
 10320 C212         7.4130    24.1560    -7.8240 C.3      83  POP77      -0.0496
 10321 H12R         6.3990    24.4190    -7.3510 H        83  POP77       0.0268
 10322 H12S         8.1330    24.7340    -7.2140 H        83  POP77       0.0268
 10323 C213         7.6870    22.6400    -7.6000 C.3      83  POP77      -0.0528
 10324 H13R         8.5900    22.4970    -8.3410 H        83  POP77       0.0265
 10325 H13S         6.9180    21.9930    -8.0330 H        83  POP77       0.0265
 10326 C214         8.1620    22.2360    -6.2500 C.3      83  POP77      -0.0530
 10327 H14R         9.2650    22.5790    -6.1130 H        83  POP77       0.0265
 10328 H14S         8.2550    21.1680    -6.3610 H        83  POP77       0.0265
 10329 C215         7.2890    22.7740    -5.1570 C.3      83  POP77      -0.0531
 10330 H15R         6.2100    22.4440    -5.3380 H        83  POP77       0.0265
 10331 H15S         7.2650    23.8880    -5.3350 H        83  POP77       0.0265
 10332 C216         7.7300    22.3880    -3.7460 C.3      83  POP77      -0.0533
 10333 H16R         8.6410    23.0060    -3.3820 H        83  POP77       0.0265
 10334 H16S         8.1330    21.3060    -3.7260 H        83  POP77       0.0265
 10335 C217         6.6180    22.3770    -2.6890 C.3      83  POP77      -0.0559
 10336 H17R         5.7580    21.6470    -2.9480 H        83  POP77       0.0263
 10337 H17S         6.0870    23.3700    -2.6120 H        83  POP77       0.0263
 10338 C218         7.1160    22.0250    -1.2920 C.3      83  POP77      -0.0653
 10339 H18R         6.3110    22.2950    -0.4890 H        83  POP77       0.0230
 10340 H18S         8.0000    22.7230    -1.0320 H        83  POP77       0.0230
 10341 H18T         7.5040    21.0220    -1.1850 H        83  POP77       0.0230
 10342 C33          1.6400    28.9580   -16.9090 C.3      83  POP77      -0.0441
 10343 H3X          1.4870    27.9110   -17.2650 H        83  POP77       0.0270
 10344 H3Y          0.7710    29.2470   -16.3500 H        83  POP77       0.0270
 10345 C34          2.6930    28.8710   -15.7650 C.3      83  POP77      -0.0526
 10346 H4X          2.7230    29.8980   -15.3010 H        83  POP77       0.0265
 10347 H4Y          3.6900    28.6600   -16.2140 H        83  POP77       0.0265
 10348 C35          2.2860    27.8120   -14.7290 C.3      83  POP77      -0.0530
 10349 H5X          2.2850    26.7990   -15.1910 H        83  POP77       0.0265
 10350 H5Y          1.2560    28.0100   -14.4660 H        83  POP77       0.0265
 10351 C36          3.3250    27.8250   -13.6280 C.3      83  POP77      -0.0531
 10352 H6X          3.1960    28.8130   -13.2040 H        83  POP77       0.0265
 10353 H6Y          4.3630    27.5970   -14.0580 H        83  POP77       0.0265
 10354 C37          2.8650    26.9220   -12.4780 C.3      83  POP77      -0.0531
 10355 H7X          2.6820    25.9070   -13.0050 H        83  POP77       0.0265
 10356 H7Y          1.9140    27.2250   -11.9440 H        83  POP77       0.0265
 10357 C38          3.9410    26.8190   -11.3770 C.3      83  POP77      -0.0531
 10358 H8X          4.9170    26.4470   -11.7660 H        83  POP77       0.0265
 10359 H8Y          3.5720    25.9780   -10.6980 H        83  POP77       0.0265
 10360 C39          4.1450    27.9950   -10.4050 C.3      83  POP77      -0.0531
 10361 H9X          3.3140    28.0870    -9.7580 H        83  POP77       0.0265
 10362 H9Y          4.2990    28.8620   -11.0940 H        83  POP77       0.0265
 10363 C310         5.4820    27.8730    -9.6920 C.3      83  POP77      -0.0531
 10364 H10X         6.2720    27.8380   -10.4430 H        83  POP77       0.0265
 10365 H10Y         5.3980    26.8610    -9.1060 H        83  POP77       0.0265
 10366 C311         5.7270    28.9380    -8.6110 C.3      83  POP77      -0.0531
 10367 H11X         5.1420    29.8320    -8.7570 H        83  POP77       0.0265
 10368 H11Y         6.8180    29.2390    -8.6470 H        83  POP77       0.0265
 10369 C312         5.3620    28.4070    -7.2120 C.3      83  POP77      -0.0531
 10370 H12X         6.1770    27.6600    -6.9510 H        83  POP77       0.0265
 10371 H12Y         4.3250    28.0030    -7.3010 H        83  POP77       0.0265
 10372 C313         5.3840    29.3680    -6.0520 C.3      83  POP77      -0.0531
 10373 H13X         4.4690    29.9880    -6.1430 H        83  POP77       0.0265
 10374 H13Y         6.2710    29.9810    -6.0930 H        83  POP77       0.0265
 10375 C314         5.3730    28.7170    -4.7410 C.3      83  POP77      -0.0533
 10376 H14X         6.1740    27.9520    -4.6410 H        83  POP77       0.0265
 10377 H14Y         4.4280    28.0990    -4.6050 H        83  POP77       0.0265
 10378 C315         5.8130    29.5600    -3.5060 C.3      83  POP77      -0.0559
 10379 H15X         5.1000    30.4250    -3.2500 H        83  POP77       0.0263
 10380 H15Y         6.7640    30.0490    -3.7780 H        83  POP77       0.0263
 10381 C316         5.8550    28.8170    -2.1900 C.3      83  POP77      -0.0653
 10382 H16X         6.6700    28.0150    -2.2760 H        83  POP77       0.0230
 10383 H16Y         4.8500    28.4280    -1.8840 H        83  POP77       0.0230
 10384 H16Z         6.1580    29.5160    -1.3700 H        83  POP77       0.0230
 10385 N           10.5250    31.7620   -22.5520 N.3      84  POP78       0.2385
 10386 C12         11.0390    30.6610   -21.6500 C.3      84  POP78      -0.0064
 10387 H12A        10.7570    29.7100   -22.0010 H        84  POP78       0.0838
 10388 H12B        10.3910    30.7690   -20.7030 H        84  POP78       0.0838
 10389 C13         11.0720    31.7430   -23.9160 C.3      84  POP78      -0.0417
 10390 H13A        11.1080    30.7400   -24.3820 H        84  POP78       0.0778
 10391 H13B        10.4700    32.2740   -24.6420 H        84  POP78       0.0778
 10392 H13C        12.1270    32.1530   -23.9570 H        84  POP78       0.0778
 10393 C14          9.0470    31.7940   -22.5690 C.3      84  POP78      -0.0417
 10394 H14A         8.7520    32.5310   -23.2840 H        84  POP78       0.0778
 10395 H14B         8.6430    30.9650   -23.0970 H        84  POP78       0.0778
 10396 H14C         8.6090    31.8740   -21.5840 H        84  POP78       0.0778
 10397 C15         10.8600    33.0830   -21.9590 C.3      84  POP78      -0.0417
 10398 H15A        10.5940    33.8150   -22.6910 H        84  POP78       0.0778
 10399 H15B        11.8700    33.2690   -21.6950 H        84  POP78       0.0778
 10400 H15C        10.2080    33.2900   -21.0550 H        84  POP78       0.0778
 10401 C11         12.3970    30.6480   -21.1620 C.3      84  POP78       0.0954
 10402 H11A        12.4840    29.9050   -20.2670 H        84  POP78       0.0618
 10403 H11B        12.7890    31.6050   -20.8130 H        84  POP78       0.0618
 10404 P           13.9240    28.9280   -22.3510 P.3      84  POP78       0.2645
 10405 O13         15.1630    28.9320   -23.1970 O.co2    84  POP78      -0.5105
 10406 O14         12.8180    28.0600   -22.7790 O.co2    84  POP78      -0.5105
 10407 O12         13.3080    30.3630   -22.2510 O.3      84  POP78      -0.3154
 10408 O11         14.3590    28.6810   -20.8840 O.3      84  POP78      -0.3181
 10409 C1          14.4990    27.5130   -20.1250 C.3      84  POP78       0.0845
 10410 HA          15.6300    27.4950   -19.8300 H        84  POP78       0.0591
 10411 HB          14.2170    26.5870   -20.6280 H        84  POP78       0.0591
 10412 C2          13.5860    27.6150   -18.8700 C.3      84  POP78       0.1155
 10413 HS          12.5680    27.7860   -19.2510 H        84  POP78       0.0649
 10414 O21         14.1370    28.6910   -18.0930 O.3      84  POP78      -0.3072
 10415 C21         13.3420    29.2030   -17.1670 C.2      84  POP78       0.2626
 10416 O22         12.1280    29.1950   -17.2520 O.2      84  POP78      -0.2650
 10417 C22         14.2100    29.6730   -16.0430 C.3      84  POP78       0.0332
 10418 H2R         14.9170    30.3960   -16.4850 H        84  POP78       0.0366
 10419 H2S         14.7180    28.8320   -15.5470 H        84  POP78       0.0366
 10420 C3          13.5910    26.2400   -18.1240 C.3      84  POP78       0.0860
 10421 HX          14.6840    25.9560   -17.8650 H        84  POP78       0.0593
 10422 HY          13.2470    25.4660   -18.8540 H        84  POP78       0.0593
 10423 O31         12.7110    26.3070   -16.9960 O.3      84  POP78      -0.3125
 10424 C31         12.2940    25.0950   -16.6420 C.2      84  POP78       0.2622
 10425 O32         12.3380    24.1130   -17.3790 O.2      84  POP78      -0.2650
 10426 C32         11.6980    25.0750   -15.2840 C.3      84  POP78       0.0332
 10427 H2X         10.7600    24.4810   -15.2660 H        84  POP78       0.0366
 10428 H2Y         11.3820    26.1360   -15.0090 H        84  POP78       0.0366
 10429 C23         13.3880    30.2740   -14.9650 C.3      84  POP78      -0.0441
 10430 H3R         12.7540    29.5090   -14.5560 H        84  POP78       0.0270
 10431 H3S         12.6280    31.0310   -15.3240 H        84  POP78       0.0270
 10432 C24         14.2400    30.9360   -13.8810 C.3      84  POP78      -0.0526
 10433 H4R         13.5750    31.5030   -13.1860 H        84  POP78       0.0265
 10434 H4S         14.7610    31.7330   -14.3300 H        84  POP78       0.0265
 10435 C25         15.0370    30.0780   -12.9250 C.3      84  POP78      -0.0530
 10436 H5R         15.8590    30.7200   -12.5400 H        84  POP78       0.0265
 10437 H5S         15.5220    29.2200   -13.5230 H        84  POP78       0.0265
 10438 C26         14.2140    29.4300   -11.8730 C.3      84  POP78      -0.0528
 10439 H6R         13.2780    29.0280   -12.2850 H        84  POP78       0.0265
 10440 H6S         14.0660    30.1190   -11.0050 H        84  POP78       0.0265
 10441 C27         14.9670    28.2710   -11.2670 C.3      84  POP78      -0.0496
 10442 H7R         15.9190    28.6840   -10.9530 H        84  POP78       0.0268
 10443 H7S         15.2800    27.5610   -12.0480 H        84  POP78       0.0268
 10444 C28         14.1100    27.4920   -10.2640 C.3      84  POP78      -0.0348
 10445 H8R         14.5530    26.4570   -10.2750 H        84  POP78       0.0307
 10446 H8S         13.0780    27.3740   -10.6760 H        84  POP78       0.0307
 10447 C29         14.1480    28.1360    -8.9280 C.2      84  POP78      -0.0879
 10448 H91         13.5470    29.0380    -8.7560 H        84  POP78       0.0569
 10449 C210        14.9810    27.7720    -7.9120 C.2      84  POP78      -0.0879
 10450 H101        15.0550    28.4880    -7.1220 H        84  POP78       0.0569
 10451 C211        15.8450    26.5570    -7.7560 C.3      84  POP78      -0.0348
 10452 H11R        16.9000    26.8380    -7.7570 H        84  POP78       0.0307
 10453 H11S        15.7650    25.8750    -8.6170 H        84  POP78       0.0307
 10454 C212        15.6530    25.6650    -6.5060 C.3      84  POP78      -0.0496
 10455 H12R        15.7390    26.1900    -5.5320 H        84  POP78       0.0268
 10456 H12S        16.4930    25.0160    -6.4330 H        84  POP78       0.0268
 10457 C213        14.3550    24.8510    -6.4390 C.3      84  POP78      -0.0528
 10458 H13R        14.2980    24.0070    -7.2390 H        84  POP78       0.0265
 10459 H13S        13.4880    25.5160    -6.5660 H        84  POP78       0.0265
 10460 C214        14.1690    24.1520    -5.0990 C.3      84  POP78      -0.0530
 10461 H14R        15.1900    23.6660    -4.7640 H        84  POP78       0.0265
 10462 H14S        13.4470    23.3130    -5.2560 H        84  POP78       0.0265
 10463 C215        13.7730    25.0580    -3.9380 C.3      84  POP78      -0.0531
 10464 H15R        13.0210    25.8260    -4.2650 H        84  POP78       0.0265
 10465 H15S        14.6460    25.5900    -3.5150 H        84  POP78       0.0265
 10466 C216        13.3500    24.2660    -2.7440 C.3      84  POP78      -0.0533
 10467 H16R        14.0560    23.4480    -2.4960 H        84  POP78       0.0265
 10468 H16S        12.4270    23.6550    -3.0110 H        84  POP78       0.0265
 10469 C217        13.1020    25.2040    -1.5490 C.3      84  POP78      -0.0559
 10470 H17R        12.3190    25.8930    -1.9790 H        84  POP78       0.0263
 10471 H17S        14.0230    25.7790    -1.3420 H        84  POP78       0.0263
 10472 C218        12.6040    24.5530    -0.2280 C.3      84  POP78      -0.0653
 10473 H18R        11.7900    23.8190    -0.4980 H        84  POP78       0.0230
 10474 H18S        12.3480    25.2380     0.5220 H        84  POP78       0.0230
 10475 H18T        13.3000    23.8230     0.1270 H        84  POP78       0.0230
 10476 C33         12.6610    24.4190   -14.2460 C.3      84  POP78      -0.0441
 10477 H3X         13.7300    24.6650   -14.4410 H        84  POP78       0.0270
 10478 H3Y         12.4850    23.3560   -14.3620 H        84  POP78       0.0270
 10479 C34         12.4840    24.7440   -12.7520 C.3      84  POP78      -0.0526
 10480 H4X         12.7890    25.7660   -12.4710 H        84  POP78       0.0265
 10481 H4Y         13.1580    24.0120   -12.1850 H        84  POP78       0.0265
 10482 C35         11.0580    24.6460   -12.3690 C.3      84  POP78      -0.0530
 10483 H5X         10.7310    23.6620   -12.7980 H        84  POP78       0.0265
 10484 H5Y         10.4470    25.4270   -12.9540 H        84  POP78       0.0265
 10485 C36         10.8690    24.6000   -10.8040 C.3      84  POP78      -0.0531
 10486 H6X         11.9100    24.3870   -10.4060 H        84  POP78       0.0265
 10487 H6Y         10.1820    23.8560   -10.3730 H        84  POP78       0.0265
 10488 C37         10.3310    25.8990   -10.1700 C.3      84  POP78      -0.0531
 10489 H7X          9.2450    26.0120   -10.3040 H        84  POP78       0.0265
 10490 H7Y         10.7900    26.8090   -10.6610 H        84  POP78       0.0265
 10491 C38         10.7250    25.8270    -8.6960 C.3      84  POP78      -0.0531
 10492 H8X         11.8150    25.7950    -8.6010 H        84  POP78       0.0265
 10493 H8Y         10.2840    24.9110    -8.2370 H        84  POP78       0.0265
 10494 C39         10.0270    26.9180    -7.9460 C.3      84  POP78      -0.0531
 10495 H9X          8.9790    26.9690    -8.1580 H        84  POP78       0.0265
 10496 H9Y         10.5000    27.8850    -8.2370 H        84  POP78       0.0265
 10497 C310        10.1340    26.7170    -6.4800 C.3      84  POP78      -0.0531
 10498 H10X        11.2460    26.6170    -6.1650 H        84  POP78       0.0265
 10499 H10Y         9.5890    25.6960    -6.1330 H        84  POP78       0.0265
 10500 C311         9.6090    27.9550    -5.7050 C.3      84  POP78      -0.0531
 10501 H11X         8.4890    28.0140    -5.8500 H        84  POP78       0.0265
 10502 H11Y        10.0820    28.8380    -6.1850 H        84  POP78       0.0265
 10503 C312         9.7770    27.9650    -4.1300 C.3      84  POP78      -0.0531
 10504 H12X         9.2070    28.8320    -3.8310 H        84  POP78       0.0265
 10505 H12Y        10.8240    28.1320    -3.7510 H        84  POP78       0.0265
 10506 C313         9.0570    26.7890    -3.4820 C.3      84  POP78      -0.0531
 10507 H13X         9.5850    25.8080    -3.8410 H        84  POP78       0.0265
 10508 H13Y         7.9870    26.6760    -3.7380 H        84  POP78       0.0265
 10509 C314         9.1450    26.9060    -1.9590 C.3      84  POP78      -0.0533
 10510 H14X         8.5380    27.7000    -1.4590 H        84  POP78       0.0265
 10511 H14Y        10.2620    27.0520    -1.7540 H        84  POP78       0.0265
 10512 C315         8.8400    25.5160    -1.3490 C.3      84  POP78      -0.0559
 10513 H15X         9.5640    24.7470    -1.8260 H        84  POP78       0.0263
 10514 H15Y         7.7640    25.2800    -1.6300 H        84  POP78       0.0263
 10515 C316         8.9670    25.4780     0.1650 C.3      84  POP78      -0.0653
 10516 H16X         8.6370    24.4710     0.4100 H        84  POP78       0.0230
 10517 H16Y         8.2610    26.2370     0.5670 H        84  POP78       0.0230
 10518 H16Z        10.0100    25.4440     0.6020 H        84  POP78       0.0230
 10519 N           15.0020    12.6660   -23.3620 N.3      85  POP79       0.2385
 10520 C12         14.8780    13.0360   -21.9150 C.3      85  POP79      -0.0064
 10521 H12A        15.6070    13.7810   -21.5840 H        85  POP79       0.0838
 10522 H12B        15.0500    12.1130   -21.4590 H        85  POP79       0.0838
 10523 C13         14.1720    11.5260   -23.8010 C.3      85  POP79      -0.0417
 10524 H13A        14.4210    10.6280   -23.1330 H        85  POP79       0.0778
 10525 H13B        13.0250    11.9040   -23.8330 H        85  POP79       0.0778
 10526 H13C        14.4180    11.1490   -24.7940 H        85  POP79       0.0778
 10527 C14         14.7470    13.9030   -24.2190 C.3      85  POP79      -0.0417
 10528 H14A        13.7930    14.4900   -23.8830 H        85  POP79       0.0778
 10529 H14B        15.5960    14.5280   -24.2790 H        85  POP79       0.0778
 10530 H14C        14.5770    13.5820   -25.3000 H        85  POP79       0.0778
 10531 C15         16.4610    12.2560   -23.5250 C.3      85  POP79      -0.0417
 10532 H15A        16.6530    11.3450   -23.0170 H        85  POP79       0.0778
 10533 H15B        17.0560    13.0240   -23.1630 H        85  POP79       0.0778
 10534 H15C        16.6850    12.0800   -24.6320 H        85  POP79       0.0778
 10535 C11         13.4890    13.6060   -21.4930 C.3      85  POP79       0.0954
 10536 H11A        13.2490    13.3410   -20.4360 H        85  POP79       0.0618
 10537 H11B        12.7700    13.0700   -22.1050 H        85  POP79       0.0618
 10538 P           14.2460    16.0470   -20.9750 P.3      85  POP79       0.2645
 10539 O13         13.8820    17.3700   -21.5180 O.co2    85  POP79      -0.5105
 10540 O14         15.6700    15.7500   -20.7880 O.co2    85  POP79      -0.5105
 10541 O12         13.4210    14.9950   -21.8360 O.3      85  POP79      -0.3154
 10542 O11         13.6390    15.7390   -19.5560 O.3      85  POP79      -0.3181
 10543 C1          12.3840    16.3010   -19.2260 C.3      85  POP79       0.0845
 10544 HA          11.5610    16.1060   -20.0120 H        85  POP79       0.0591
 10545 HB          12.6010    17.3410   -19.1390 H        85  POP79       0.0591
 10546 C2          11.8480    15.7800   -17.9310 C.3      85  POP79       0.1155
 10547 HS          10.9290    16.2910   -17.6880 H        85  POP79       0.0649
 10548 O21         12.8050    16.2540   -16.8810 O.3      85  POP79      -0.3072
 10549 C21         12.6560    17.4830   -16.4230 C.2      85  POP79       0.2626
 10550 O22         11.7770    18.2510   -16.7000 O.2      85  POP79      -0.2650
 10551 C22         13.9060    17.8520   -15.6210 C.3      85  POP79       0.0332
 10552 H2R         13.9110    18.9920   -15.5770 H        85  POP79       0.0366
 10553 H2S         14.8350    17.5360   -16.1990 H        85  POP79       0.0366
 10554 C3          11.6380    14.2400   -17.8960 C.3      85  POP79       0.0860
 10555 HX          12.4690    13.7580   -18.4300 H        85  POP79       0.0593
 10556 HY          10.6970    13.9740   -18.4850 H        85  POP79       0.0593
 10557 O31         11.5620    13.7000   -16.5240 O.3      85  POP79      -0.3125
 10558 C31         10.4100    13.9410   -15.9180 C.2      85  POP79       0.2622
 10559 O32          9.3660    14.3610   -16.4350 O.2      85  POP79      -0.2650
 10560 C32         10.5320    13.3800   -14.4960 C.3      85  POP79       0.0332
 10561 H2X         11.6520    13.4010   -14.1830 H        85  POP79       0.0366
 10562 H2Y         10.1100    12.3960   -14.5760 H        85  POP79       0.0366
 10563 C23         14.1990    17.0370   -14.3380 C.3      85  POP79      -0.0441
 10564 H3R         15.0300    17.5110   -13.8420 H        85  POP79       0.0270
 10565 H3S         14.4870    15.9670   -14.4870 H        85  POP79       0.0270
 10566 C24         13.0300    16.9810   -13.3270 C.3      85  POP79      -0.0526
 10567 H4R         12.0420    16.7610   -13.7890 H        85  POP79       0.0265
 10568 H4S         12.9660    17.8940   -12.6950 H        85  POP79       0.0265
 10569 C25         13.1160    15.8550   -12.2830 C.3      85  POP79      -0.0530
 10570 H5R         13.2260    14.8720   -12.8500 H        85  POP79       0.0265
 10571 H5S         12.2070    15.9600   -11.6990 H        85  POP79       0.0265
 10572 C26         14.2130    15.9930   -11.1380 C.3      85  POP79      -0.0528
 10573 H6R         14.2240    17.0950   -10.9690 H        85  POP79       0.0265
 10574 H6S         15.2580    15.8360   -11.5600 H        85  POP79       0.0265
 10575 C27         13.9520    15.0390    -9.9490 C.3      85  POP79      -0.0496
 10576 H7R         13.7300    13.9320   -10.2950 H        85  POP79       0.0268
 10577 H7S         13.0030    15.2970    -9.3950 H        85  POP79       0.0268
 10578 C28         14.9220    14.9600    -8.7660 C.3      85  POP79      -0.0348
 10579 H8R         15.8010    14.4960    -9.2690 H        85  POP79       0.0307
 10580 H8S         14.5570    14.2970    -7.9580 H        85  POP79       0.0307
 10581 C29         15.3480    16.3660    -8.2210 C.2      85  POP79      -0.0879
 10582 H91         15.1460    17.2890    -8.8090 H        85  POP79       0.0569
 10583 C210        15.8920    16.5160    -6.9900 C.2      85  POP79      -0.0879
 10584 H101        16.0590    17.5040    -6.5990 H        85  POP79       0.0569
 10585 C211        16.4350    15.2600    -6.2640 C.3      85  POP79      -0.0348
 10586 H11R        17.3760    14.8570    -6.6650 H        85  POP79       0.0307
 10587 H11S        15.6070    14.4780    -6.2360 H        85  POP79       0.0307
 10588 C212        16.8090    15.6320    -4.8120 C.3      85  POP79      -0.0496
 10589 H12R        16.0640    16.2000    -4.2030 H        85  POP79       0.0268
 10590 H12S        17.5490    16.4150    -4.7540 H        85  POP79       0.0268
 10591 C213        17.2630    14.4590    -3.9710 C.3      85  POP79      -0.0528
 10592 H13R        18.0240    13.8480    -4.4320 H        85  POP79       0.0265
 10593 H13S        16.4920    13.7370    -3.7240 H        85  POP79       0.0265
 10594 C214        17.9370    14.8970    -2.6160 C.3      85  POP79      -0.0530
 10595 H14R        18.6450    15.7170    -2.7400 H        85  POP79       0.0265
 10596 H14S        18.3880    13.9870    -2.1540 H        85  POP79       0.0265
 10597 C215        16.8510    15.4270    -1.6010 C.3      85  POP79      -0.0531
 10598 H15R        16.0660    14.6320    -1.4770 H        85  POP79       0.0265
 10599 H15S        16.3770    16.3600    -1.9800 H        85  POP79       0.0265
 10600 C216        17.5630    15.8310    -0.2310 C.3      85  POP79      -0.0533
 10601 H16R        18.3470    16.6410    -0.5080 H        85  POP79       0.0265
 10602 H16S        18.1140    15.0230     0.0730 H        85  POP79       0.0265
 10603 C217        16.5370    16.3850     0.7430 C.3      85  POP79      -0.0559
 10604 H17R        15.8880    15.5080     0.8150 H        85  POP79       0.0263
 10605 H17S        15.9070    17.1770     0.3230 H        85  POP79       0.0263
 10606 C218        17.0720    16.8380     2.1020 C.3      85  POP79      -0.0653
 10607 H18R        16.2790    17.0380     2.8200 H        85  POP79       0.0230
 10608 H18S        17.8140    17.6840     1.9580 H        85  POP79       0.0230
 10609 H18T        17.6450    15.9130     2.4780 H        85  POP79       0.0230
 10610 C33          9.6940    14.1470   -13.4510 C.3      85  POP79      -0.0441
 10611 H3X          8.6410    14.1230   -13.8210 H        85  POP79       0.0270
 10612 H3Y         10.0750    15.2040   -13.3220 H        85  POP79       0.0270
 10613 C34          9.7760    13.5200   -12.0480 C.3      85  POP79      -0.0526
 10614 H4X         10.7660    13.6240   -11.5920 H        85  POP79       0.0265
 10615 H4Y          9.5320    12.4150   -12.1420 H        85  POP79       0.0265
 10616 C35          8.8530    14.0260   -10.9720 C.3      85  POP79      -0.0530
 10617 H5X          9.1330    15.0770   -10.7570 H        85  POP79       0.0265
 10618 H5Y          9.0830    13.4510   -10.0660 H        85  POP79       0.0265
 10619 C36          7.3380    13.9320   -11.1260 C.3      85  POP79      -0.0531
 10620 H6X          6.9600    12.8490   -11.1690 H        85  POP79       0.0265
 10621 H6Y          7.0720    14.3760   -12.0590 H        85  POP79       0.0265
 10622 C37          6.5540    14.6740   -10.0170 C.3      85  POP79      -0.0531
 10623 H7X          6.6990    15.8070   -10.1600 H        85  POP79       0.0265
 10624 H7Y          6.9620    14.4520    -9.0250 H        85  POP79       0.0265
 10625 C38          5.0500    14.3000   -10.0490 C.3      85  POP79      -0.0531
 10626 H8X          4.8850    13.2360    -9.9570 H        85  POP79       0.0265
 10627 H8Y          4.6680    14.6990   -10.9820 H        85  POP79       0.0265
 10628 C39          4.2470    14.9420    -8.8220 C.3      85  POP79      -0.0531
 10629 H9X          3.2540    15.1920    -9.0820 H        85  POP79       0.0265
 10630 H9Y          4.7730    15.8580    -8.6430 H        85  POP79       0.0265
 10631 C310         4.5030    14.1230    -7.6100 C.3      85  POP79      -0.0531
 10632 H10X         5.5190    13.8160    -7.5120 H        85  POP79       0.0265
 10633 H10Y         3.9290    13.1860    -7.6190 H        85  POP79       0.0265
 10634 C311         4.0040    14.8690    -6.3140 C.3      85  POP79      -0.0531
 10635 H11X         2.9460    15.1160    -6.3530 H        85  POP79       0.0265
 10636 H11Y         4.5120    15.8470    -6.0360 H        85  POP79       0.0265
 10637 C312         4.1640    13.8920    -5.1770 C.3      85  POP79      -0.0531
 10638 H12X         5.1780    13.3790    -5.1650 H        85  POP79       0.0265
 10639 H12Y         3.5410    12.9930    -5.3840 H        85  POP79       0.0265
 10640 C313         3.8610    14.4660    -3.7690 C.3      85  POP79      -0.0531
 10641 H13X         4.6830    15.0540    -3.3440 H        85  POP79       0.0265
 10642 H13Y         3.8840    13.7210    -2.9160 H        85  POP79       0.0265
 10643 C314         2.5700    15.2580    -3.6220 C.3      85  POP79      -0.0533
 10644 H14X         1.7070    14.6310    -3.8810 H        85  POP79       0.0265
 10645 H14Y         2.6530    16.1590    -4.3220 H        85  POP79       0.0265
 10646 C315         2.4760    15.6950    -2.1860 C.3      85  POP79      -0.0559
 10647 H15X         3.2850    16.2270    -1.7420 H        85  POP79       0.0263
 10648 H15Y         2.4080    14.6970    -1.7260 H        85  POP79       0.0263
 10649 C316         1.1970    16.5650    -1.8980 C.3      85  POP79      -0.0653
 10650 H16X         0.6540    16.2580    -0.9330 H        85  POP79       0.0230
 10651 H16Y         0.5510    16.5520    -2.8000 H        85  POP79       0.0230
 10652 H16Z         1.4880    17.6410    -1.6910 H        85  POP79       0.0230
 10653 N            1.9760    26.2000   -23.1760 N.3      86  POP80       0.2385
 10654 C12          0.5440    26.6700   -22.7420 C.3      86  POP80      -0.0064
 10655 H12A         0.0020    26.9890   -23.6050 H        86  POP80       0.0838
 10656 H12B         0.6260    27.4760   -22.0640 H        86  POP80       0.0838
 10657 C13          2.6970    27.3610   -23.6720 C.3      86  POP80      -0.0417
 10658 H13A         2.1970    27.6780   -24.5670 H        86  POP80       0.0778
 10659 H13B         2.6790    28.0990   -22.8780 H        86  POP80       0.0778
 10660 H13C         3.7260    27.1700   -23.9040 H        86  POP80       0.0778
 10661 C14          2.7620    25.7860   -21.9110 C.3      86  POP80      -0.0417
 10662 H14A         2.3050    25.0140   -21.2620 H        86  POP80       0.0778
 10663 H14B         3.6980    25.4010   -22.2350 H        86  POP80       0.0778
 10664 H14C         2.9600    26.6490   -21.2670 H        86  POP80       0.0778
 10665 C15          1.8810    25.1630   -24.2460 C.3      86  POP80      -0.0417
 10666 H15A         2.8690    24.8160   -24.5570 H        86  POP80       0.0778
 10667 H15B         1.3100    25.4310   -25.1190 H        86  POP80       0.0778
 10668 H15C         1.3440    24.3960   -23.7230 H        86  POP80       0.0778
 10669 C11         -0.3740    25.6090   -22.0320 C.3      86  POP80       0.0954
 10670 H11A        -1.2990    26.0650   -21.5830 H        86  POP80       0.0618
 10671 H11B         0.2540    25.3290   -21.1050 H        86  POP80       0.0618
 10672 P           -1.9760    24.1210   -23.5390 P.3      86  POP80       0.2645
 10673 O13         -2.0670    22.7140   -23.9190 O.co2    86  POP80      -0.5105
 10674 O14         -2.2020    25.0500   -24.6260 O.co2    86  POP80      -0.5105
 10675 O12         -0.5210    24.4030   -22.8110 O.3      86  POP80      -0.3154
 10676 O11         -3.0210    24.4000   -22.4060 O.3      86  POP80      -0.3181
 10677 C1          -3.0280    23.6380   -21.2120 C.3      86  POP80       0.0845
 10678 HA          -2.9160    24.2330   -20.2490 H        86  POP80       0.0591
 10679 HB          -2.3030    22.8590   -21.2330 H        86  POP80       0.0591
 10680 C2          -4.3520    22.8850   -21.0270 C.3      86  POP80       0.1155
 10681 HS          -4.6250    22.5020   -22.0240 H        86  POP80       0.0649
 10682 O21         -5.2590    23.8060   -20.4530 O.3      86  POP80      -0.3072
 10683 C21         -6.5660    23.6020   -20.6190 C.2      86  POP80       0.2626
 10684 O22         -7.0280    22.6730   -21.2230 O.2      86  POP80      -0.2650
 10685 C22         -7.3260    24.6650   -19.8890 C.3      86  POP80       0.0332
 10686 H2R         -8.3870    24.3900   -19.8530 H        86  POP80       0.0366
 10687 H2S         -7.3520    25.6020   -20.4900 H        86  POP80       0.0366
 10688 C3          -4.2200    21.6830   -20.1040 C.3      86  POP80       0.0860
 10689 HX          -3.4060    21.0210   -20.5350 H        86  POP80       0.0593
 10690 HY          -5.1550    21.0740   -20.2120 H        86  POP80       0.0593
 10691 O31         -3.8530    22.1240   -18.8090 O.3      86  POP80      -0.3125
 10692 C31         -4.7920    22.3030   -17.8880 C.2      86  POP80       0.2622
 10693 O32         -5.9990    21.9610   -17.9450 O.2      86  POP80      -0.2650
 10694 C32         -4.1730    23.0370   -16.6950 C.3      86  POP80       0.0332
 10695 H2X         -4.5910    24.0440   -16.7530 H        86  POP80       0.0366
 10696 H2Y         -3.0710    23.1480   -16.8200 H        86  POP80       0.0366
 10697 C23         -6.7380    25.1040   -18.5070 C.3      86  POP80      -0.0441
 10698 H3R         -5.6090    25.2190   -18.4800 H        86  POP80       0.0270
 10699 H3S         -6.9920    24.4020   -17.7320 H        86  POP80       0.0270
 10700 C24         -7.2140    26.4930   -18.0700 C.3      86  POP80      -0.0526
 10701 H4R         -8.3040    26.5400   -18.0200 H        86  POP80       0.0265
 10702 H4S         -6.7790    27.1290   -18.8840 H        86  POP80       0.0265
 10703 C25         -6.5900    26.8280   -16.7460 C.3      86  POP80      -0.0530
 10704 H5R         -5.5250    26.5350   -16.7760 H        86  POP80       0.0265
 10705 H5S         -7.1270    26.3230   -15.9130 H        86  POP80       0.0265
 10706 C26         -6.6060    28.3450   -16.4100 C.3      86  POP80      -0.0528
 10707 H6R         -6.4530    28.8620   -17.4310 H        86  POP80       0.0265
 10708 H6S         -5.7740    28.6270   -15.6760 H        86  POP80       0.0265
 10709 C27         -7.9920    28.9080   -15.8940 C.3      86  POP80      -0.0496
 10710 H7R         -8.2810    28.4010   -14.9340 H        86  POP80       0.0268
 10711 H7S         -8.7720    28.5510   -16.6150 H        86  POP80       0.0268
 10712 C28         -7.8900    30.4470   -15.7490 C.3      86  POP80      -0.0348
 10713 H8R         -7.6200    30.8610   -16.7500 H        86  POP80       0.0307
 10714 H8S         -7.1990    30.6240   -14.9250 H        86  POP80       0.0307
 10715 C29         -9.3390    30.7900   -15.3460 C.2      86  POP80      -0.0879
 10716 H91        -10.1320    30.5260   -16.0500 H        86  POP80       0.0569
 10717 C210        -9.7010    31.3530   -14.1450 C.2      86  POP80      -0.0879
 10718 H101       -10.7680    31.4710   -14.0110 H        86  POP80       0.0569
 10719 C211        -8.8310    31.8230   -13.0150 C.3      86  POP80      -0.0348
 10720 H11R        -8.9940    32.9100   -12.8740 H        86  POP80       0.0307
 10721 H11S        -7.7060    31.7170   -13.3230 H        86  POP80       0.0307
 10722 C212        -8.9410    31.0890   -11.6370 C.3      86  POP80      -0.0496
 10723 H12R        -8.7760    29.9560   -11.7270 H        86  POP80       0.0268
 10724 H12S        -9.9680    31.0470   -11.3810 H        86  POP80       0.0268
 10725 C213        -8.0780    31.7650   -10.5400 C.3      86  POP80      -0.0528
 10726 H13R        -8.2720    32.8490   -10.5400 H        86  POP80       0.0265
 10727 H13S        -7.0000    31.7090   -10.6620 H        86  POP80       0.0265
 10728 C214        -8.4360    31.3880    -9.1210 C.3      86  POP80      -0.0530
 10729 H14R        -8.2660    30.2960    -8.9500 H        86  POP80       0.0265
 10730 H14S        -9.5290    31.6370    -8.9450 H        86  POP80       0.0265
 10731 C215        -7.6990    32.1870    -8.0210 C.3      86  POP80      -0.0531
 10732 H15R        -7.5950    33.2570    -8.3490 H        86  POP80       0.0265
 10733 H15S        -6.6450    31.7930    -7.8810 H        86  POP80       0.0265
 10734 C216        -8.4110    32.0810    -6.6580 C.3      86  POP80      -0.0533
 10735 H16R        -8.7960    31.0770    -6.8170 H        86  POP80       0.0265
 10736 H16S        -9.2810    32.8400    -6.5760 H        86  POP80       0.0265
 10737 C217        -7.5130    32.1230    -5.4840 C.3      86  POP80      -0.0559
 10738 H17R        -7.0660    33.1720    -5.3910 H        86  POP80       0.0263
 10739 H17S        -6.6230    31.4070    -5.5600 H        86  POP80       0.0263
 10740 C218        -8.1630    31.6580    -4.1670 C.3      86  POP80      -0.0653
 10741 H18R        -8.4670    30.5720    -4.1790 H        86  POP80       0.0230
 10742 H18S        -9.1100    32.2760    -4.0210 H        86  POP80       0.0230
 10743 H18T        -7.5160    31.7580    -3.3200 H        86  POP80       0.0230
 10744 C33         -4.5760    22.2860   -15.3980 C.3      86  POP80      -0.0441
 10745 H3X         -4.3010    21.1880   -15.4380 H        86  POP80       0.0270
 10746 H3Y         -5.6260    22.2990   -15.2600 H        86  POP80       0.0270
 10747 C34         -3.9600    23.0460   -14.1790 C.3      86  POP80      -0.0526
 10748 H4X         -4.4390    24.0590   -14.0470 H        86  POP80       0.0265
 10749 H4Y         -2.9010    23.2320   -14.4730 H        86  POP80       0.0265
 10750 C35         -4.0500    22.3300   -12.8380 C.3      86  POP80      -0.0530
 10751 H5X         -3.5140    21.3690   -12.9500 H        86  POP80       0.0265
 10752 H5Y         -5.0460    22.1880   -12.5210 H        86  POP80       0.0265
 10753 C36         -3.2480    23.1750   -11.7470 C.3      86  POP80      -0.0531
 10754 H6X         -3.7380    24.1770   -11.5860 H        86  POP80       0.0265
 10755 H6Y         -2.2100    23.3300   -11.9750 H        86  POP80       0.0265
 10756 C37         -3.3290    22.4850   -10.3850 C.3      86  POP80      -0.0531
 10757 H7X         -2.4810    21.7740   -10.4020 H        86  POP80       0.0265
 10758 H7Y         -4.3350    21.8970   -10.1260 H        86  POP80       0.0265
 10759 C38         -3.0370    23.4090    -9.2500 C.3      86  POP80      -0.0531
 10760 H8X         -3.7530    24.2180    -9.0730 H        86  POP80       0.0265
 10761 H8Y         -2.0790    23.8750    -9.4300 H        86  POP80       0.0265
 10762 C39         -2.9350    22.5580    -7.9690 C.3      86  POP80      -0.0531
 10763 H9X         -2.0790    22.9450    -7.5090 H        86  POP80       0.0265
 10764 H9Y         -2.6960    21.4880    -8.2860 H        86  POP80       0.0265
 10765 C310        -4.1110    22.4350    -6.9800 C.3      86  POP80      -0.0531
 10766 H10X        -3.8300    21.7490    -6.0980 H        86  POP80       0.0265
 10767 H10Y        -5.0310    22.0050    -7.5240 H        86  POP80       0.0265
 10768 C311        -4.4130    23.7700    -6.3760 C.3      86  POP80      -0.0531
 10769 H11X        -5.3960    23.7160    -5.8420 H        86  POP80       0.0265
 10770 H11Y        -4.4880    24.4710    -7.2310 H        86  POP80       0.0265
 10771 C312        -3.4660    24.2360    -5.2630 C.3      86  POP80      -0.0531
 10772 H12X        -3.6740    25.3170    -5.0910 H        86  POP80       0.0265
 10773 H12Y        -2.3920    24.1860    -5.5560 H        86  POP80       0.0265
 10774 C313        -3.6740    23.4190    -3.9460 C.3      86  POP80      -0.0531
 10775 H13X        -3.3360    22.3390    -4.1110 H        86  POP80       0.0265
 10776 H13Y        -4.7050    23.3860    -3.6150 H        86  POP80       0.0265
 10777 C314        -2.8680    23.8750    -2.7230 C.3      86  POP80      -0.0533
 10778 H14X        -3.2160    23.2480    -1.8100 H        86  POP80       0.0265
 10779 H14Y        -3.0600    24.9240    -2.4940 H        86  POP80       0.0265
 10780 C315        -1.3510    23.7400    -2.6420 C.3      86  POP80      -0.0559
 10781 H15X        -1.0000    23.9330    -1.6280 H        86  POP80       0.0263
 10782 H15Y        -0.9050    24.5600    -3.2610 H        86  POP80       0.0263
 10783 C316        -0.8970    22.3130    -3.0360 C.3      86  POP80      -0.0653
 10784 H16X         0.1820    22.1150    -2.7190 H        86  POP80       0.0230
 10785 H16Y        -1.1760    21.9300    -3.9700 H        86  POP80       0.0230
 10786 H16Z        -1.4280    21.6440    -2.3290 H        86  POP80       0.0230
 10787 N            2.3280   -18.3650   -20.8520 N.3      87  POP81       0.2385
 10788 C12          3.7950   -18.6530   -21.2360 C.3      87  POP81      -0.0064
 10789 H12A         4.4250   -17.8660   -20.8580 H        87  POP81       0.0838
 10790 H12B         3.8950   -18.5740   -22.3240 H        87  POP81       0.0838
 10791 C13          1.4290   -19.2290   -21.7550 C.3      87  POP81      -0.0417
 10792 H13A         1.5750   -20.2910   -21.5960 H        87  POP81       0.0778
 10793 H13B         0.3380   -19.1910   -21.5740 H        87  POP81       0.0778
 10794 H13C         1.5300   -18.9210   -22.7330 H        87  POP81       0.0778
 10795 C14          2.0410   -18.6350   -19.4540 C.3      87  POP81      -0.0417
 10796 H14A         2.7600   -18.0050   -18.8380 H        87  POP81       0.0778
 10797 H14B         1.0490   -18.3310   -19.1610 H        87  POP81       0.0778
 10798 H14C         2.0520   -19.6850   -19.1300 H        87  POP81       0.0778
 10799 C15          2.2530   -16.8870   -21.1180 C.3      87  POP81      -0.0417
 10800 H15A         2.9060   -16.2870   -20.5100 H        87  POP81       0.0778
 10801 H15B         1.2480   -16.4650   -20.8960 H        87  POP81       0.0778
 10802 H15C         2.4050   -16.6730   -22.2000 H        87  POP81       0.0778
 10803 C11          4.4040   -19.9360   -20.7360 C.3      87  POP81       0.0954
 10804 H11A         4.5090   -19.9160   -19.5800 H        87  POP81       0.0618
 10805 H11B         5.4510   -19.9130   -21.0240 H        87  POP81       0.0618
 10806 P            2.9740   -22.1430   -20.4440 P.3      87  POP81       0.2645
 10807 O13          1.9410   -22.9060   -21.2320 O.co2    87  POP81      -0.5105
 10808 O14          2.5500   -21.6030   -19.1070 O.co2    87  POP81      -0.5105
 10809 O12          3.7600   -21.0550   -21.2780 O.3      87  POP81      -0.3154
 10810 O11          4.1490   -23.1990   -20.2160 O.3      87  POP81      -0.3181
 10811 C1           5.2630   -22.9070   -19.4010 C.3      87  POP81       0.0845
 10812 HA           5.2820   -21.8620   -18.9890 H        87  POP81       0.0591
 10813 HB           6.0910   -23.0360   -20.1440 H        87  POP81       0.0591
 10814 C2           5.5170   -23.9310   -18.2170 C.3      87  POP81       0.1155
 10815 HS           5.2400   -24.9490   -18.5510 H        87  POP81       0.0649
 10816 O21          4.7630   -23.5510   -17.0570 O.3      87  POP81      -0.3072
 10817 C21          3.5840   -24.1560   -16.9430 C.2      87  POP81       0.2626
 10818 O22          3.0930   -24.8900   -17.7960 O.2      87  POP81      -0.2650
 10819 C22          2.9680   -23.7870   -15.5880 C.3      87  POP81       0.0332
 10820 H2R          2.3670   -22.8310   -15.7560 H        87  POP81       0.0366
 10821 H2S          3.7440   -23.7260   -14.8690 H        87  POP81       0.0366
 10822 C3           7.0330   -23.9610   -17.8240 C.3      87  POP81       0.0860
 10823 HX           7.2280   -22.9490   -17.3860 H        87  POP81       0.0593
 10824 HY           7.7180   -24.1250   -18.6840 H        87  POP81       0.0593
 10825 O31          7.3410   -24.9080   -16.7670 O.3      87  POP81      -0.3125
 10826 C31          7.3050   -26.1580   -17.0100 C.2      87  POP81       0.2622
 10827 O32          7.2560   -26.7610   -18.0690 O.2      87  POP81      -0.2650
 10828 C32          7.2390   -26.8520   -15.6280 C.3      87  POP81       0.0332
 10829 H2X          7.7210   -26.1750   -14.8850 H        87  POP81       0.0366
 10830 H2Y          7.8750   -27.7420   -15.7470 H        87  POP81       0.0366
 10831 C23          2.0740   -24.9330   -15.0280 C.3      87  POP81      -0.0441
 10832 H3R          2.6740   -25.9020   -15.0310 H        87  POP81       0.0270
 10833 H3S          1.1570   -24.9950   -15.6010 H        87  POP81       0.0270
 10834 C24          1.7240   -24.6880   -13.5490 C.3      87  POP81      -0.0526
 10835 H4R          0.9500   -23.8580   -13.5220 H        87  POP81       0.0265
 10836 H4S          2.6810   -24.5370   -13.0250 H        87  POP81       0.0265
 10837 C25          1.1320   -25.8320   -12.7920 C.3      87  POP81      -0.0530
 10838 H5R          1.7550   -26.6770   -12.8770 H        87  POP81       0.0265
 10839 H5S          0.1240   -26.1530   -13.1670 H        87  POP81       0.0265
 10840 C26          0.9400   -25.5530   -11.2800 C.3      87  POP81      -0.0528
 10841 H6R          0.3980   -26.4290   -10.7730 H        87  POP81       0.0265
 10842 H6S          0.1890   -24.7530   -11.1470 H        87  POP81       0.0265
 10843 C27          2.1720   -25.1660   -10.5140 C.3      87  POP81      -0.0496
 10844 H7R          1.8720   -25.1770    -9.4820 H        87  POP81       0.0268
 10845 H7S          2.3940   -24.0990   -10.8190 H        87  POP81       0.0268
 10846 C28          3.4380   -26.0480   -10.6570 C.3      87  POP81      -0.0348
 10847 H8R          3.6320   -26.3280   -11.7460 H        87  POP81       0.0307
 10848 H8S          3.3200   -27.0960   -10.1310 H        87  POP81       0.0307
 10849 C29          4.5860   -25.1580   -10.3320 C.2      87  POP81      -0.0879
 10850 H91          4.7890   -24.4640   -11.1840 H        87  POP81       0.0569
 10851 C210         5.2310   -25.0340    -9.1660 C.2      87  POP81      -0.0879
 10852 H101         6.0230   -24.2720    -9.1840 H        87  POP81       0.0569
 10853 C211         4.8580   -25.7360    -7.9010 C.3      87  POP81      -0.0348
 10854 H11R         4.0170   -26.4430    -8.0780 H        87  POP81       0.0307
 10855 H11S         4.5300   -25.0550    -7.0420 H        87  POP81       0.0307
 10856 C212         5.9630   -26.7180    -7.3180 C.3      87  POP81      -0.0496
 10857 H12R         7.0140   -26.1410    -7.1440 H        87  POP81       0.0268
 10858 H12S         6.1220   -27.5500    -8.0750 H        87  POP81       0.0268
 10859 C213         5.5160   -27.4710    -5.9790 C.3      87  POP81      -0.0528
 10860 H13R         6.3120   -28.1670    -5.7410 H        87  POP81       0.0265
 10861 H13S         4.6810   -28.0670    -6.3190 H        87  POP81       0.0265
 10862 C214         5.3090   -26.6620    -4.6470 C.3      87  POP81      -0.0530
 10863 H14R         4.9400   -25.7430    -5.0130 H        87  POP81       0.0265
 10864 H14S         6.3190   -26.5480    -4.0830 H        87  POP81       0.0265
 10865 C215         4.3150   -27.2820    -3.5480 C.3      87  POP81      -0.0531
 10866 H15R         3.4180   -27.8120    -4.0000 H        87  POP81       0.0265
 10867 H15S         3.9390   -26.4150    -3.0440 H        87  POP81       0.0265
 10868 C216         5.0360   -28.0680    -2.4300 C.3      87  POP81      -0.0533
 10869 H16R         5.8260   -27.3950    -1.9140 H        87  POP81       0.0265
 10870 H16S         5.4200   -29.0200    -2.7620 H        87  POP81       0.0265
 10871 C217         4.0990   -28.3520    -1.2200 C.3      87  POP81      -0.0559
 10872 H17R         3.5440   -27.3690    -1.0230 H        87  POP81       0.0263
 10873 H17S         4.7200   -28.4860    -0.2700 H        87  POP81       0.0263
 10874 C218         3.0610   -29.4810    -1.4250 C.3      87  POP81      -0.0653
 10875 H18R         2.3340   -29.3220    -2.2660 H        87  POP81       0.0230
 10876 H18S         2.3810   -29.5090    -0.5170 H        87  POP81       0.0230
 10877 H18T         3.5730   -30.4560    -1.3920 H        87  POP81       0.0230
 10878 C33          5.8670   -27.2730   -14.9810 C.3      87  POP81      -0.0441
 10879 H3X          5.1490   -26.4270   -14.9960 H        87  POP81       0.0270
 10880 H3Y          6.0920   -27.5050   -13.8650 H        87  POP81       0.0270
 10881 C34          5.4340   -28.6700   -15.5460 C.3      87  POP81      -0.0526
 10882 H4X          6.2470   -29.4330   -15.6300 H        87  POP81       0.0265
 10883 H4Y          5.2560   -28.4290   -16.7120 H        87  POP81       0.0265
 10884 C35          4.1650   -29.2640   -14.9030 C.3      87  POP81      -0.0530
 10885 H5X          3.7200   -29.9850   -15.6320 H        87  POP81       0.0265
 10886 H5Y          3.2870   -28.5260   -14.6930 H        87  POP81       0.0265
 10887 C36          4.5200   -29.7910   -13.5150 C.3      87  POP81      -0.0531
 10888 H6X          4.5520   -28.8990   -12.8820 H        87  POP81       0.0265
 10889 H6Y          5.4870   -30.3050   -13.5270 H        87  POP81       0.0265
 10890 C37          3.3550   -30.6060   -12.8880 C.3      87  POP81      -0.0531
 10891 H7X          3.0980   -31.5090   -13.5380 H        87  POP81       0.0265
 10892 H7Y          2.5440   -29.8290   -12.9380 H        87  POP81       0.0265
 10893 C38          3.6830   -31.0450   -11.5430 C.3      87  POP81      -0.0531
 10894 H8X          4.5860   -31.6580   -11.6660 H        87  POP81       0.0265
 10895 H8Y          2.9770   -31.7130   -10.9980 H        87  POP81       0.0265
 10896 C39          3.9750   -29.8430   -10.5170 C.3      87  POP81      -0.0531
 10897 H9X          2.9860   -29.2940   -10.5670 H        87  POP81       0.0265
 10898 H9Y          4.7020   -29.1650   -10.8820 H        87  POP81       0.0265
 10899 C310         4.3670   -30.1920    -9.0720 C.3      87  POP81      -0.0531
 10900 H10X         3.5240   -30.8840    -8.7550 H        87  POP81       0.0265
 10901 H10Y         4.3990   -29.3070    -8.5070 H        87  POP81       0.0265
 10902 C311         5.6200   -30.9100    -8.8350 C.3      87  POP81      -0.0531
 10903 H11X         6.4340   -30.4860    -9.4950 H        87  POP81       0.0265
 10904 H11Y         5.4950   -32.0060    -9.1690 H        87  POP81       0.0265
 10905 C312         6.0010   -31.0180    -7.3880 C.3      87  POP81      -0.0531
 10906 H12X         5.0890   -30.9760    -6.7670 H        87  POP81       0.0265
 10907 H12Y         6.6180   -30.0160    -7.1400 H        87  POP81       0.0265
 10908 C313         6.9230   -32.0420    -6.7870 C.3      87  POP81      -0.0531
 10909 H13X         7.8060   -32.2090    -7.4330 H        87  POP81       0.0265
 10910 H13Y         6.3860   -33.0190    -6.6140 H        87  POP81       0.0265
 10911 C314         7.5930   -31.6790    -5.3860 C.3      87  POP81      -0.0533
 10912 H14X         7.9930   -30.6080    -5.3840 H        87  POP81       0.0265
 10913 H14Y         8.5230   -32.3110    -5.3180 H        87  POP81       0.0265
 10914 C315         6.7870   -31.8070    -4.0910 C.3      87  POP81      -0.0559
 10915 H15X         5.8260   -31.2680    -4.2820 H        87  POP81       0.0263
 10916 H15Y         7.3060   -31.2360    -3.3060 H        87  POP81       0.0263
 10917 C316         6.5320   -33.2320    -3.5640 C.3      87  POP81      -0.0653
 10918 H16X         7.4690   -33.6100    -3.1210 H        87  POP81       0.0230
 10919 H16Y         6.3340   -33.8470    -4.3460 H        87  POP81       0.0230
 10920 H16Z         5.7010   -33.2800    -2.8230 H        87  POP81       0.0230
 10921 N           -8.7470   -30.6400   -25.6420 N.3      88  POP82       0.2385
 10922 C12         -8.5360   -30.4620   -24.1410 C.3      88  POP82      -0.0064
 10923 H12A        -9.4440   -30.6330   -23.6090 H        88  POP82       0.0838
 10924 H12B        -8.4270   -29.3520   -23.9720 H        88  POP82       0.0838
 10925 C13         -9.9070   -29.7710   -26.1740 C.3      88  POP82      -0.0417
 10926 H13A       -10.8360   -29.9680   -25.6130 H        88  POP82       0.0778
 10927 H13B        -9.6840   -28.7410   -25.9790 H        88  POP82       0.0778
 10928 H13C        -9.9360   -29.9560   -27.2610 H        88  POP82       0.0778
 10929 C14         -7.5990   -30.1380   -26.4420 C.3      88  POP82      -0.0417
 10930 H14A        -6.6420   -30.5610   -26.1440 H        88  POP82       0.0778
 10931 H14B        -7.7300   -30.3880   -27.5230 H        88  POP82       0.0778
 10932 H14C        -7.6580   -29.0750   -26.4440 H        88  POP82       0.0778
 10933 C15         -9.1080   -32.0170   -25.8860 C.3      88  POP82      -0.0417
 10934 H15A        -8.3520   -32.7430   -25.4610 H        88  POP82       0.0778
 10935 H15B        -9.1990   -32.2210   -26.9480 H        88  POP82       0.0778
 10936 H15C        -9.9760   -32.3430   -25.4020 H        88  POP82       0.0778
 10937 C11         -7.4250   -31.2540   -23.4490 C.3      88  POP82       0.0954
 10938 H11A        -7.3800   -32.1820   -24.0500 H        88  POP82       0.0618
 10939 H11B        -7.6040   -31.4680   -22.3810 H        88  POP82       0.0618
 10940 P           -5.9370   -29.2920   -22.7420 P.3      88  POP82       0.2645
 10941 O13         -6.9340   -28.2820   -23.0380 O.co2    88  POP82      -0.5105
 10942 O14         -4.5020   -28.8270   -22.6930 O.co2    88  POP82      -0.5105
 10943 O12         -6.1300   -30.6400   -23.5630 O.3      88  POP82      -0.3154
 10944 O11         -6.3270   -29.7810   -21.2520 O.3      88  POP82      -0.3181
 10945 C1          -5.4940   -30.7720   -20.6660 C.3      88  POP82       0.0845
 10946 HA          -4.3820   -30.5040   -20.6330 H        88  POP82       0.0591
 10947 HB          -5.5350   -31.8090   -21.2790 H        88  POP82       0.0591
 10948 C2          -5.9800   -31.0270   -19.2580 C.3      88  POP82       0.1155
 10949 HS          -5.3710   -30.3840   -18.5660 H        88  POP82       0.0649
 10950 O21         -5.8710   -32.4500   -18.9620 O.3      88  POP82      -0.3072
 10951 C21         -4.6950   -32.8290   -18.6400 C.2      88  POP82       0.2626
 10952 O22         -3.6490   -32.2480   -18.8590 O.2      88  POP82      -0.2650
 10953 C22         -4.7660   -34.1760   -17.8480 C.3      88  POP82       0.0332
 10954 H2R         -4.5330   -35.0220   -18.5410 H        88  POP82       0.0366
 10955 H2S         -5.7830   -34.3370   -17.5840 H        88  POP82       0.0366
 10956 C3          -7.4640   -30.6590   -19.1650 C.3      88  POP82       0.0860
 10957 HX          -7.9860   -31.2160   -19.9930 H        88  POP82       0.0593
 10958 HY          -7.5640   -29.5640   -19.3570 H        88  POP82       0.0593
 10959 O31         -8.0510   -31.0100   -17.9150 O.3      88  POP82      -0.3125
 10960 C31         -9.3800   -31.1280   -17.9290 C.2      88  POP82       0.2622
 10961 O32        -10.1500   -30.9870   -18.8900 O.2      88  POP82      -0.2650
 10962 C32         -9.8530   -31.4010   -16.4540 C.3      88  POP82       0.0332
 10963 H2X         -9.0970   -30.8970   -15.7700 H        88  POP82       0.0366
 10964 H2Y         -9.7450   -32.5200   -16.2820 H        88  POP82       0.0366
 10965 C23         -3.8350   -34.5030   -16.5930 C.3      88  POP82      -0.0441
 10966 H3R         -2.7900   -34.2310   -16.8900 H        88  POP82       0.0270
 10967 H3S         -3.7610   -35.6310   -16.3440 H        88  POP82       0.0270
 10968 C24         -4.2860   -33.7160   -15.2720 C.3      88  POP82      -0.0526
 10969 H4R         -5.4090   -33.5440   -15.2960 H        88  POP82       0.0265
 10970 H4S         -3.7810   -32.7050   -15.3050 H        88  POP82       0.0265
 10971 C25         -4.1030   -34.4470   -13.8960 C.3      88  POP82      -0.0530
 10972 H5R         -3.1350   -34.8880   -13.7790 H        88  POP82       0.0265
 10973 H5S         -4.8770   -35.2490   -13.8710 H        88  POP82       0.0265
 10974 C26         -4.2250   -33.5790   -12.6220 C.3      88  POP82      -0.0528
 10975 H6R         -5.2340   -33.0780   -12.5730 H        88  POP82       0.0265
 10976 H6S         -3.3620   -32.9030   -12.7510 H        88  POP82       0.0265
 10977 C27         -4.0650   -34.4890   -11.3810 C.3      88  POP82      -0.0496
 10978 H7R         -3.0000   -34.8520   -11.3210 H        88  POP82       0.0268
 10979 H7S         -4.6940   -35.3640   -11.3430 H        88  POP82       0.0268
 10980 C28         -4.2420   -33.7210    -9.9900 C.3      88  POP82      -0.0348
 10981 H8R         -5.2100   -33.1580   -10.0030 H        88  POP82       0.0307
 10982 H8S         -3.4910   -32.9540    -9.8980 H        88  POP82       0.0307
 10983 C29         -4.1330   -34.7010    -8.8120 C.2      88  POP82      -0.0879
 10984 H91         -4.7370   -35.6170    -8.8770 H        88  POP82       0.0569
 10985 C210        -3.5560   -34.4570    -7.6240 C.2      88  POP82      -0.0879
 10986 H101        -3.5150   -35.3560    -7.0320 H        88  POP82       0.0569
 10987 C211        -2.7260   -33.2810    -7.1870 C.3      88  POP82      -0.0348
 10988 H11R        -2.5060   -32.6030    -8.0750 H        88  POP82       0.0307
 10989 H11S        -1.6670   -33.7750    -6.8410 H        88  POP82       0.0307
 10990 C212        -3.2390   -32.5830    -5.9740 C.3      88  POP82      -0.0496
 10991 H12R        -3.3780   -33.3860    -5.1790 H        88  POP82       0.0268
 10992 H12S        -4.2690   -32.1780    -6.1030 H        88  POP82       0.0268
 10993 C213        -2.2010   -31.5770    -5.4770 C.3      88  POP82      -0.0528
 10994 H13R        -2.1080   -30.7800    -6.2700 H        88  POP82       0.0265
 10995 H13S        -1.2450   -32.0790    -5.3090 H        88  POP82       0.0265
 10996 C214        -2.6290   -30.8920    -4.1790 C.3      88  POP82      -0.0530
 10997 H14R        -2.5200   -31.7100    -3.3940 H        88  POP82       0.0265
 10998 H14S        -3.6510   -30.4980    -4.2150 H        88  POP82       0.0265
 10999 C215        -1.6940   -29.7450    -3.7440 C.3      88  POP82      -0.0531
 11000 H15R        -1.4600   -29.1290    -4.6290 H        88  POP82       0.0265
 11001 H15S        -0.7340   -30.2070    -3.5480 H        88  POP82       0.0265
 11002 C216        -2.3020   -28.9830    -2.5690 C.3      88  POP82      -0.0533
 11003 H16R        -2.7480   -29.7490    -1.8800 H        88  POP82       0.0265
 11004 H16S        -3.0910   -28.3170    -3.0430 H        88  POP82       0.0265
 11005 C217        -1.3270   -28.1300    -1.7560 C.3      88  POP82      -0.0559
 11006 H17R        -0.4190   -28.6230    -1.5690 H        88  POP82       0.0263
 11007 H17S        -1.6670   -27.8090    -0.7810 H        88  POP82       0.0263
 11008 C218        -0.9750   -26.8300    -2.4220 C.3      88  POP82      -0.0653
 11009 H18R        -0.6440   -27.0960    -3.4540 H        88  POP82       0.0230
 11010 H18S        -0.0800   -26.2940    -1.8780 H        88  POP82       0.0230
 11011 H18T        -1.7830   -26.0720    -2.4680 H        88  POP82       0.0230
 11012 C33        -11.1900   -30.9210   -16.0110 C.3      88  POP82      -0.0441
 11013 H3X        -11.9480   -31.3550   -16.6620 H        88  POP82       0.0270
 11014 H3Y        -11.3530   -29.9100   -16.1540 H        88  POP82       0.0270
 11015 C34        -11.4350   -31.1980   -14.5250 C.3      88  POP82      -0.0526
 11016 H4X        -11.0890   -32.2400   -14.3760 H        88  POP82       0.0265
 11017 H4Y        -12.4810   -31.1010   -14.2150 H        88  POP82       0.0265
 11018 C35        -10.5420   -30.3030   -13.6140 C.3      88  POP82      -0.0530
 11019 H5X        -10.6010   -29.2650   -13.9440 H        88  POP82       0.0265
 11020 H5Y         -9.4870   -30.6320   -13.7280 H        88  POP82       0.0265
 11021 C36        -10.9670   -30.4910   -12.0820 C.3      88  POP82      -0.0531
 11022 H6X        -10.7610   -31.5160   -11.7430 H        88  POP82       0.0265
 11023 H6Y        -11.9890   -30.1550   -11.9510 H        88  POP82       0.0265
 11024 C37        -10.0580   -29.6140   -11.1870 C.3      88  POP82      -0.0531
 11025 H7X        -10.6900   -28.7110   -10.9680 H        88  POP82       0.0265
 11026 H7Y         -9.1200   -29.2350   -11.6550 H        88  POP82       0.0265
 11027 C38         -9.7080   -30.3100    -9.8730 C.3      88  POP82      -0.0531
 11028 H8X         -9.0380   -29.6500    -9.3790 H        88  POP82       0.0265
 11029 H8Y         -9.1440   -31.2620   -10.1150 H        88  POP82       0.0265
 11030 C39        -10.8870   -30.4770    -8.9340 C.3      88  POP82      -0.0531
 11031 H9X        -11.3920   -31.4200    -9.2820 H        88  POP82       0.0265
 11032 H9Y        -11.6040   -29.5910    -9.0860 H        88  POP82       0.0265
 11033 C310       -10.4980   -30.6030    -7.4750 C.3      88  POP82      -0.0531
 11034 H10X       -10.1780   -29.6270    -7.0900 H        88  POP82       0.0265
 11035 H10Y        -9.6460   -31.3150    -7.3480 H        88  POP82       0.0265
 11036 C311       -11.7550   -31.1020    -6.6020 C.3      88  POP82      -0.0531
 11037 H11X       -12.1550   -32.1120    -6.9340 H        88  POP82       0.0265
 11038 H11Y       -12.5300   -30.2720    -6.6770 H        88  POP82       0.0265
 11039 C312       -11.4680   -31.1720    -5.1050 C.3      88  POP82      -0.0531
 11040 H12X       -11.0110   -30.1650    -4.9280 H        88  POP82       0.0265
 11041 H12Y       -10.7630   -32.0060    -4.7890 H        88  POP82       0.0265
 11042 C313       -12.7990   -31.3420    -4.3130 C.3      88  POP82      -0.0531
 11043 H13X       -13.2160   -32.4170    -4.3430 H        88  POP82       0.0265
 11044 H13Y       -13.4560   -30.6340    -4.8400 H        88  POP82       0.0265
 11045 C314       -12.5110   -31.0240    -2.9140 C.3      88  POP82      -0.0533
 11046 H14X       -13.4320   -31.1140    -2.2810 H        88  POP82       0.0265
 11047 H14Y       -12.2240   -29.9690    -2.9180 H        88  POP82       0.0265
 11048 C315       -11.3980   -31.9860    -2.3230 C.3      88  POP82      -0.0559
 11049 H15X       -10.3390   -31.7630    -2.7710 H        88  POP82       0.0263
 11050 H15Y       -11.6050   -32.9490    -2.7170 H        88  POP82       0.0263
 11051 C316       -11.3440   -31.8790    -0.7610 C.3      88  POP82      -0.0653
 11052 H16X       -12.2710   -32.2950    -0.3020 H        88  POP82       0.0230
 11053 H16Y       -11.1990   -30.8840    -0.3840 H        88  POP82       0.0230
 11054 H16Z       -10.4260   -32.4360    -0.4760 H        88  POP82       0.0230
 11055 N            1.0470    15.2340   -23.5090 N.3      89  POP83       0.2385
 11056 C12          0.4750    15.9420   -22.3020 C.3      89  POP83      -0.0064
 11057 H12A         0.4270    16.9770   -22.4890 H        89  POP83       0.0838
 11058 H12B         1.2190    15.8710   -21.5400 H        89  POP83       0.0838
 11059 C13          0.1100    14.9560   -24.6610 C.3      89  POP83      -0.0417
 11060 H13A        -0.8330    14.5570   -24.4590 H        89  POP83       0.0778
 11061 H13B        -0.1840    15.9580   -25.0700 H        89  POP83       0.0778
 11062 H13C         0.5660    14.2720   -25.3600 H        89  POP83       0.0778
 11063 C14          2.2160    15.9250   -24.0270 C.3      89  POP83      -0.0417
 11064 H14A         2.8440    15.2230   -24.5950 H        89  POP83       0.0778
 11065 H14B         1.9540    16.7450   -24.6730 H        89  POP83       0.0778
 11066 H14C         2.9210    16.1440   -23.2730 H        89  POP83       0.0778
 11067 C15          1.6330    13.9150   -23.0450 C.3      89  POP83      -0.0417
 11068 H15A         2.0240    13.3540   -23.7590 H        89  POP83       0.0778
 11069 H15B         0.9710    13.4870   -22.3020 H        89  POP83       0.0778
 11070 H15C         2.5820    14.2150   -22.4810 H        89  POP83       0.0778
 11071 C11         -0.8770    15.5380   -21.7350 C.3      89  POP83       0.0954
 11072 H11A        -1.7290    15.7010   -22.4110 H        89  POP83       0.0618
 11073 H11B        -1.1020    16.2710   -20.8260 H        89  POP83       0.0618
 11074 P           -1.2260    13.6000   -19.8740 P.3      89  POP83       0.2645
 11075 O13          0.0240    13.4420   -19.1550 O.co2    89  POP83      -0.5105
 11076 O14         -1.9990    12.4220   -20.0240 O.co2    89  POP83      -0.5105
 11077 O12         -0.9450    14.1780   -21.3930 O.3      89  POP83      -0.3154
 11078 O11         -2.1080    14.6710   -19.1600 O.3      89  POP83      -0.3181
 11079 C1          -2.5010    14.5220   -17.8110 C.3      89  POP83       0.0845
 11080 HA          -2.5090    13.4860   -17.4910 H        89  POP83       0.0591
 11081 HB          -3.5200    14.9050   -17.6560 H        89  POP83       0.0591
 11082 C2          -1.5690    15.3660   -16.8400 C.3      89  POP83       0.1155
 11083 HS          -0.6150    14.7490   -16.7480 H        89  POP83       0.0649
 11084 O21         -2.1810    15.5210   -15.5880 O.3      89  POP83      -0.3072
 11085 C21         -2.3320    14.4740   -14.8100 C.2      89  POP83       0.2626
 11086 O22         -1.7860    13.4400   -15.0020 O.2      89  POP83      -0.2650
 11087 C22         -3.2770    14.8840   -13.6400 C.3      89  POP83       0.0332
 11088 H2R         -3.5990    15.8970   -13.8270 H        89  POP83       0.0366
 11089 H2S         -2.6490    14.9370   -12.6920 H        89  POP83       0.0366
 11090 C3          -1.2890    16.7890   -17.4780 C.3      89  POP83       0.0860
 11091 HX          -2.2490    17.2270   -17.8840 H        89  POP83       0.0593
 11092 HY          -0.5690    16.5520   -18.2990 H        89  POP83       0.0593
 11093 O31         -0.6840    17.5580   -16.5070 O.3      89  POP83      -0.3125
 11094 C31         -1.4090    18.6120   -16.0790 C.2      89  POP83       0.2622
 11095 O32         -2.5660    18.9200   -16.3610 O.2      89  POP83      -0.2650
 11096 C32         -0.5060    19.3560   -15.1250 C.3      89  POP83       0.0332
 11097 H2X         -0.2210    20.2450   -15.5630 H        89  POP83       0.0366
 11098 H2Y          0.4180    18.6700   -15.0350 H        89  POP83       0.0366
 11099 C23         -4.5150    14.0430   -13.3510 C.3      89  POP83      -0.0441
 11100 H3R         -4.3250    12.9990   -13.1090 H        89  POP83       0.0270
 11101 H3S         -5.0990    14.0670   -14.2900 H        89  POP83       0.0270
 11102 C24         -5.3820    14.6420   -12.3290 C.3      89  POP83      -0.0526
 11103 H4R         -5.5330    15.7250   -12.5410 H        89  POP83       0.0265
 11104 H4S         -4.7410    14.5310   -11.4600 H        89  POP83       0.0265
 11105 C25         -6.7970    13.9740   -12.2150 C.3      89  POP83      -0.0530
 11106 H5R         -6.8020    12.8470   -12.2320 H        89  POP83       0.0265
 11107 H5S         -7.3960    14.3000   -13.1170 H        89  POP83       0.0265
 11108 C26         -7.4050    14.3550   -10.8550 C.3      89  POP83      -0.0528
 11109 H6R         -7.5740    15.4380   -10.7930 H        89  POP83       0.0265
 11110 H6S         -6.7560    14.0300   -10.0800 H        89  POP83       0.0265
 11111 C27         -8.7870    13.6870   -10.8040 C.3      89  POP83      -0.0496
 11112 H7R         -8.7180    12.6120   -10.8190 H        89  POP83       0.0268
 11113 H7S         -9.4240    13.9660   -11.7260 H        89  POP83       0.0268
 11114 C28         -9.6540    14.1180    -9.5530 C.3      89  POP83      -0.0348
 11115 H8R         -9.6860    15.2080    -9.5760 H        89  POP83       0.0307
 11116 H8S         -9.0240    13.7930    -8.6480 H        89  POP83       0.0307
 11117 C29        -10.9630    13.4500    -9.6370 C.2      89  POP83      -0.0879
 11118 H91        -11.6330    13.7240   -10.5450 H        89  POP83       0.0569
 11119 C210       -11.6250    12.8400    -8.6690 C.2      89  POP83      -0.0879
 11120 H101       -12.6150    12.4240    -8.9490 H        89  POP83       0.0569
 11121 C211       -11.2410    12.7320    -7.2330 C.3      89  POP83      -0.0348
 11122 H11R       -10.1260    12.7400    -7.1060 H        89  POP83       0.0307
 11123 H11S       -11.4840    11.6980    -6.9620 H        89  POP83       0.0307
 11124 C212       -11.8700    13.6780    -6.2270 C.3      89  POP83      -0.0496
 11125 H12R       -11.7970    13.1670    -5.2040 H        89  POP83       0.0268
 11126 H12S       -12.9440    13.6520    -6.4480 H        89  POP83       0.0268
 11127 C213       -11.3460    15.0640    -6.2470 C.3      89  POP83      -0.0528
 11128 H13R       -11.6620    15.4530    -7.2770 H        89  POP83       0.0265
 11129 H13S       -10.2430    14.9840    -6.1580 H        89  POP83       0.0265
 11130 C214       -11.9480    15.8760    -5.1060 C.3      89  POP83      -0.0530
 11131 H14R       -11.8980    15.3510    -4.0900 H        89  POP83       0.0265
 11132 H14S       -13.0140    15.9730    -5.4410 H        89  POP83       0.0265
 11133 C215       -11.2850    17.2240    -4.8710 C.3      89  POP83      -0.0531
 11134 H15R       -11.1730    17.7900    -5.8490 H        89  POP83       0.0265
 11135 H15S       -10.2390    17.1970    -4.5630 H        89  POP83       0.0265
 11136 C216       -12.2000    18.1220    -3.8830 C.3      89  POP83      -0.0533
 11137 H16R       -12.1420    17.7680    -2.8190 H        89  POP83       0.0265
 11138 H16S       -13.2860    18.1500    -4.1650 H        89  POP83       0.0265
 11139 C217       -11.7900    19.6050    -3.8410 C.3      89  POP83      -0.0559
 11140 H17R       -11.8720    20.1030    -4.8380 H        89  POP83       0.0263
 11141 H17S       -10.7140    19.6470    -3.6270 H        89  POP83       0.0263
 11142 C218       -12.5460    20.3920    -2.7410 C.3      89  POP83      -0.0653
 11143 H18R       -13.6580    20.5250    -2.9610 H        89  POP83       0.0230
 11144 H18S       -12.0010    21.3600    -2.5010 H        89  POP83       0.0230
 11145 H18T       -12.4780    19.8270    -1.7480 H        89  POP83       0.0230
 11146 C33         -1.0830    19.6750   -13.7120 C.3      89  POP83      -0.0441
 11147 H3X         -1.8490    20.4780   -13.7390 H        89  POP83       0.0270
 11148 H3Y         -0.2620    20.1160   -13.0450 H        89  POP83       0.0270
 11149 C34         -1.6160    18.4400   -12.9330 C.3      89  POP83      -0.0526
 11150 H4X         -0.8000    17.7170   -12.5270 H        89  POP83       0.0265
 11151 H4Y         -2.2020    17.7750   -13.5410 H        89  POP83       0.0265
 11152 C35         -2.3620    18.7980   -11.6400 C.3      89  POP83      -0.0530
 11153 H5X         -3.1420    19.5300   -11.8840 H        89  POP83       0.0265
 11154 H5Y         -1.6010    19.3860   -11.0810 H        89  POP83       0.0265
 11155 C36         -3.0280    17.5860   -10.9160 C.3      89  POP83      -0.0531
 11156 H6X         -2.1660    16.8950   -10.8090 H        89  POP83       0.0265
 11157 H6Y         -3.7700    17.0980   -11.5930 H        89  POP83       0.0265
 11158 C37         -3.5480    18.0000    -9.5260 C.3      89  POP83      -0.0531
 11159 H7X         -2.6370    18.5920    -9.1490 H        89  POP83       0.0265
 11160 H7Y         -3.7790    17.0740    -8.9530 H        89  POP83       0.0265
 11161 C38         -4.7920    18.9130    -9.6150 C.3      89  POP83      -0.0531
 11162 H8X         -5.5160    18.3380   -10.2830 H        89  POP83       0.0265
 11163 H8Y         -4.5120    19.8160   -10.2070 H        89  POP83       0.0265
 11164 C39         -5.3920    19.2680    -8.2140 C.3      89  POP83      -0.0531
 11165 H9X         -6.1660    20.0780    -8.4410 H        89  POP83       0.0265
 11166 H9Y         -4.5950    19.7650    -7.6410 H        89  POP83       0.0265
 11167 C310        -5.9590    18.0320    -7.4700 C.3      89  POP83      -0.0531
 11168 H10X        -5.4120    17.0460    -7.4390 H        89  POP83       0.0265
 11169 H10Y        -6.9410    17.8450    -7.9440 H        89  POP83       0.0265
 11170 C311        -6.2670    18.3920    -5.9840 C.3      89  POP83      -0.0531
 11171 H11X        -6.8150    19.3150    -5.8840 H        89  POP83       0.0265
 11172 H11Y        -5.3870    18.4960    -5.4120 H        89  POP83       0.0265
 11173 C312        -7.0110    17.2720    -5.2420 C.3      89  POP83      -0.0531
 11174 H12X        -6.3770    16.3290    -5.2710 H        89  POP83       0.0265
 11175 H12Y        -7.9320    17.0670    -5.8960 H        89  POP83       0.0265
 11176 C313        -7.3000    17.6200    -3.7830 C.3      89  POP83      -0.0531
 11177 H13X        -7.9150    18.5780    -3.5960 H        89  POP83       0.0265
 11178 H13Y        -6.3470    17.8670    -3.3490 H        89  POP83       0.0265
 11179 C314        -7.6970    16.2330    -3.1410 C.3      89  POP83      -0.0533
 11180 H14X        -6.7960    15.4940    -3.3590 H        89  POP83       0.0265
 11181 H14Y        -8.4560    15.9290    -3.8290 H        89  POP83       0.0265
 11182 C315        -8.0690    16.1770    -1.6700 C.3      89  POP83      -0.0559
 11183 H15X        -8.8450    16.9940    -1.4970 H        89  POP83       0.0263
 11184 H15Y        -7.1550    16.4360    -1.0490 H        89  POP83       0.0263
 11185 C316        -8.6230    14.8910    -1.0500 C.3      89  POP83      -0.0653
 11186 H16X        -7.8930    14.1730    -0.7850 H        89  POP83       0.0230
 11187 H16Y        -9.2320    14.4480    -1.8830 H        89  POP83       0.0230
 11188 H16Z        -9.2440    15.1440    -0.2320 H        89  POP83       0.0230
 11189 N            1.2040   -32.3770   -28.2920 N.3      90  POP84       0.2385
 11190 C12          1.9460   -33.2130   -27.1700 C.3      90  POP84      -0.0064
 11191 H12A         2.4230   -34.0190   -27.6290 H        90  POP84       0.0838
 11192 H12B         1.1490   -33.6380   -26.6270 H        90  POP84       0.0838
 11193 C13         -0.0270   -31.6460   -27.7860 C.3      90  POP84      -0.0417
 11194 H13A        -0.6260   -31.2300   -28.5490 H        90  POP84       0.0778
 11195 H13B        -0.6310   -32.3620   -27.2130 H        90  POP84       0.0778
 11196 H13C         0.3930   -30.8750   -27.1140 H        90  POP84       0.0778
 11197 C14          2.1870   -31.4780   -28.9000 C.3      90  POP84      -0.0417
 11198 H14A         3.0040   -31.9030   -29.3140 H        90  POP84       0.0778
 11199 H14B         1.7700   -30.9220   -29.6860 H        90  POP84       0.0778
 11200 H14C         2.5800   -30.8000   -28.1390 H        90  POP84       0.0778
 11201 C15          0.7660   -33.3220   -29.3910 C.3      90  POP84      -0.0417
 11202 H15A        -0.0030   -34.0750   -29.1170 H        90  POP84       0.0778
 11203 H15B         1.5800   -33.8790   -29.7100 H        90  POP84       0.0778
 11204 H15C         0.4670   -32.6910   -30.2360 H        90  POP84       0.0778
 11205 C11          2.8430   -32.4460   -26.2080 C.3      90  POP84       0.0954
 11206 H11A         3.6690   -31.9390   -26.7250 H        90  POP84       0.0618
 11207 H11B         3.3520   -33.1330   -25.4450 H        90  POP84       0.0618
 11208 P            1.1940   -31.8990   -24.3370 P.3      90  POP84       0.2645
 11209 O13          0.8560   -33.3410   -24.3850 O.co2    90  POP84      -0.5105
 11210 O14          0.0760   -30.9340   -24.3060 O.co2    90  POP84      -0.5105
 11211 O12          2.0430   -31.4580   -25.5780 O.3      90  POP84      -0.3154
 11212 O11          2.2850   -31.6820   -23.2160 O.3      90  POP84      -0.3181
 11213 C1           2.2090   -30.4910   -22.4000 C.3      90  POP84       0.0845
 11214 HA           1.3560   -30.3990   -21.6900 H        90  POP84       0.0591
 11215 HB           2.2220   -29.5600   -23.0670 H        90  POP84       0.0591
 11216 C2           3.4720   -30.3970   -21.5430 C.3      90  POP84       0.1155
 11217 HS           4.3210   -30.6800   -22.1460 H        90  POP84       0.0649
 11218 O21          3.3820   -31.3700   -20.4790 O.3      90  POP84      -0.3072
 11219 C21          4.3830   -31.4690   -19.5660 C.2      90  POP84       0.2626
 11220 O22          5.4140   -30.8950   -19.6880 O.2      90  POP84      -0.2650
 11221 C22          3.9360   -32.2370   -18.4510 C.3      90  POP84       0.0332
 11222 H2R          3.4910   -33.1510   -18.9210 H        90  POP84       0.0366
 11223 H2S          3.1990   -31.6640   -17.8590 H        90  POP84       0.0366
 11224 C3           3.6320   -28.9030   -20.9700 C.3      90  POP84       0.0860
 11225 HX           4.0750   -28.3120   -21.8370 H        90  POP84       0.0593
 11226 HY           4.4740   -28.8700   -20.1920 H        90  POP84       0.0593
 11227 O31          2.4100   -28.3190   -20.5440 O.3      90  POP84      -0.3125
 11228 C31          2.1890   -28.5150   -19.2280 C.2      90  POP84       0.2622
 11229 O32          2.9290   -29.0920   -18.4550 O.2      90  POP84      -0.2650
 11230 C32          0.7220   -28.1400   -18.9850 C.3      90  POP84       0.0332
 11231 H2X          0.1150   -29.0160   -19.3520 H        90  POP84       0.0366
 11232 H2Y          0.4210   -27.3090   -19.6720 H        90  POP84       0.0366
 11233 C23          5.1290   -32.6810   -17.5660 C.3      90  POP84      -0.0441
 11234 H3R          5.8250   -31.8160   -17.3180 H        90  POP84       0.0270
 11235 H3S          5.8220   -33.3410   -18.1170 H        90  POP84       0.0270
 11236 C24          4.6050   -33.0800   -16.1890 C.3      90  POP84      -0.0526
 11237 H4R          3.6150   -33.6520   -16.2530 H        90  POP84       0.0265
 11238 H4S          4.4100   -32.1860   -15.6080 H        90  POP84       0.0265
 11239 C25          5.6180   -33.8930   -15.3860 C.3      90  POP84      -0.0530
 11240 H5R          6.5590   -33.4020   -15.3400 H        90  POP84       0.0265
 11241 H5S          5.7560   -34.8220   -15.8680 H        90  POP84       0.0265
 11242 C26          5.1310   -34.1010   -13.9470 C.3      90  POP84      -0.0528
 11243 H6R          4.0310   -34.2690   -13.9580 H        90  POP84       0.0265
 11244 H6S          5.2520   -33.1320   -13.4340 H        90  POP84       0.0265
 11245 C27          5.7180   -35.2910   -13.1800 C.3      90  POP84      -0.0496
 11246 H7R          5.2770   -36.3120   -13.5310 H        90  POP84       0.0268
 11247 H7S          5.4610   -35.1040   -12.0840 H        90  POP84       0.0268
 11248 C28          7.2240   -35.2410   -13.2280 C.3      90  POP84      -0.0348
 11249 H8R          7.4960   -34.2010   -12.9150 H        90  POP84       0.0307
 11250 H8S          7.6080   -35.2540   -14.2780 H        90  POP84       0.0307
 11251 C29          7.9510   -36.1660   -12.2310 C.2      90  POP84      -0.0879
 11252 H91          7.9930   -37.1800   -12.5500 H        90  POP84       0.0569
 11253 C210         8.4880   -35.8690   -11.0640 C.2      90  POP84      -0.0879
 11254 H101         8.7820   -36.7230   -10.3870 H        90  POP84       0.0569
 11255 C211         8.5400   -34.4940   -10.4170 C.3      90  POP84      -0.0348
 11256 H11R         8.2500   -34.5210    -9.3240 H        90  POP84       0.0307
 11257 H11S         7.7790   -33.8450   -10.8800 H        90  POP84       0.0307
 11258 C212         9.9160   -33.7460   -10.4710 C.3      90  POP84      -0.0496
 11259 H12R         9.8440   -32.7080   -10.1040 H        90  POP84       0.0268
 11260 H12S        10.3980   -33.8820   -11.4320 H        90  POP84       0.0268
 11261 C213        11.0550   -34.4360    -9.6620 C.3      90  POP84      -0.0528
 11262 H13R        12.1300   -33.8930    -9.8770 H        90  POP84       0.0265
 11263 H13S        11.1180   -35.5070    -9.8620 H        90  POP84       0.0265
 11264 C214        10.9450   -34.3190    -8.2050 C.3      90  POP84      -0.0530
 11265 H14R         9.9780   -34.6710    -7.8830 H        90  POP84       0.0265
 11266 H14S        11.0200   -33.1910    -7.9360 H        90  POP84       0.0265
 11267 C215        12.0590   -35.0770    -7.4580 C.3      90  POP84      -0.0531
 11268 H15R        13.0620   -34.8480    -7.9180 H        90  POP84       0.0265
 11269 H15S        11.7740   -36.1380    -7.5660 H        90  POP84       0.0265
 11270 C216        11.8840   -34.7040    -5.9460 C.3      90  POP84      -0.0533
 11271 H16R        11.0390   -35.3230    -5.4600 H        90  POP84       0.0265
 11272 H16S        11.6670   -33.7160    -5.7010 H        90  POP84       0.0265
 11273 C217        13.0970   -35.0350    -5.1640 C.3      90  POP84      -0.0559
 11274 H17R        13.8970   -34.2010    -5.2380 H        90  POP84       0.0263
 11275 H17S        13.4970   -36.0070    -5.6350 H        90  POP84       0.0263
 11276 C218        12.8040   -35.3850    -3.7340 C.3      90  POP84      -0.0653
 11277 H18R        12.1100   -36.2170    -3.6210 H        90  POP84       0.0230
 11278 H18S        12.4100   -34.4390    -3.1760 H        90  POP84       0.0230
 11279 H18T        13.8490   -35.5760    -3.2680 H        90  POP84       0.0230
 11280 C33          0.4320   -27.6980   -17.5220 C.3      90  POP84      -0.0441
 11281 H3X         -0.5000   -27.1150   -17.4810 H        90  POP84       0.0270
 11282 H3Y          1.2060   -27.0570   -17.1980 H        90  POP84       0.0270
 11283 C34          0.0850   -28.8530   -16.5360 C.3      90  POP84      -0.0526
 11284 H4X          0.9340   -29.5460   -16.4280 H        90  POP84       0.0265
 11285 H4Y         -0.7080   -29.4900   -17.0710 H        90  POP84       0.0265
 11286 C35         -0.4150   -28.5590   -15.1280 C.3      90  POP84      -0.0530
 11287 H5X         -1.3140   -27.8520   -15.1180 H        90  POP84       0.0265
 11288 H5Y          0.3950   -28.1490   -14.4140 H        90  POP84       0.0265
 11289 C36         -0.8380   -29.7940   -14.3700 C.3      90  POP84      -0.0531
 11290 H6X          0.1160   -30.4640   -14.2680 H        90  POP84       0.0265
 11291 H6Y         -1.5140   -30.4460   -14.9200 H        90  POP84       0.0265
 11292 C37         -1.2690   -29.5750   -12.9280 C.3      90  POP84      -0.0531
 11293 H7X         -2.3180   -29.2980   -12.9740 H        90  POP84       0.0265
 11294 H7Y         -0.5980   -28.7780   -12.5400 H        90  POP84       0.0265
 11295 C38         -1.0790   -30.9210   -12.2040 C.3      90  POP84      -0.0531
 11296 H8X         -0.0950   -31.2870   -12.4120 H        90  POP84       0.0265
 11297 H8Y         -1.6930   -31.7230   -12.7130 H        90  POP84       0.0265
 11298 C39         -1.3800   -30.7710   -10.6740 C.3      90  POP84      -0.0531
 11299 H9X         -1.5270   -31.7280   -10.2250 H        90  POP84       0.0265
 11300 H9Y         -2.3600   -30.1940   -10.5700 H        90  POP84       0.0265
 11301 C310        -0.2720   -29.9570    -9.9330 C.3      90  POP84      -0.0531
 11302 H10X        -0.2250   -28.9300   -10.5230 H        90  POP84       0.0265
 11303 H10Y         0.6930   -30.3970   -10.2270 H        90  POP84       0.0265
 11304 C311        -0.6330   -29.9070    -8.3960 C.3      90  POP84      -0.0531
 11305 H11X        -0.8170   -31.0020    -8.0340 H        90  POP84       0.0265
 11306 H11Y        -1.6170   -29.4500    -8.0280 H        90  POP84       0.0265
 11307 C312         0.4720   -29.3830    -7.5540 C.3      90  POP84      -0.0531
 11308 H12X         1.5240   -29.8480    -7.7490 H        90  POP84       0.0265
 11309 H12Y         0.3290   -29.7880    -6.5490 H        90  POP84       0.0265
 11310 C313         0.5040   -27.9090    -7.3710 C.3      90  POP84      -0.0531
 11311 H13X        -0.4700   -27.5620    -6.8910 H        90  POP84       0.0265
 11312 H13Y         0.4430   -27.4310    -8.3890 H        90  POP84       0.0265
 11313 C314         1.6590   -27.4320    -6.5170 C.3      90  POP84      -0.0533
 11314 H14X         2.6060   -27.8520    -6.9060 H        90  POP84       0.0265
 11315 H14Y         1.4960   -27.7940    -5.4670 H        90  POP84       0.0265
 11316 C315         1.7210   -25.8960    -6.4270 C.3      90  POP84      -0.0559
 11317 H15X         1.0130   -25.5480    -7.1890 H        90  POP84       0.0263
 11318 H15Y         2.7150   -25.4330    -6.7100 H        90  POP84       0.0263
 11319 C316         1.3590   -25.3120    -5.0400 C.3      90  POP84      -0.0653
 11320 H16X         1.9830   -25.8250    -4.2230 H        90  POP84       0.0230
 11321 H16Y         0.3140   -25.2090    -4.6180 H        90  POP84       0.0230
 11322 H16Z         1.5080   -24.2180    -5.2150 H        90  POP84       0.0230
 11323 N            2.6610     2.6090   -10.2140 N.3      91  POP85       0.2385
 11324 C12          2.0030     3.8470    -9.6070 C.3      91  POP85      -0.0064
 11325 H12A         1.9820     3.7530    -8.5880 H        91  POP85       0.0838
 11326 H12B         0.9860     3.9140   -10.0770 H        91  POP85       0.0838
 11327 C13          3.9640     2.3840    -9.5340 C.3      91  POP85      -0.0417
 11328 H13A         4.5970     1.7910   -10.2110 H        91  POP85       0.0778
 11329 H13B         4.4580     3.3780    -9.4450 H        91  POP85       0.0778
 11330 H13C         3.8500     2.0440    -8.5070 H        91  POP85       0.0778
 11331 C14          1.7830     1.5420    -9.9320 C.3      91  POP85      -0.0417
 11332 H14A         1.6900     1.3420    -8.8850 H        91  POP85       0.0778
 11333 H14B         0.8010     1.7330   -10.2050 H        91  POP85       0.0778
 11334 H14C         2.0970     0.6260   -10.3190 H        91  POP85       0.0778
 11335 C15          2.9250     2.7190   -11.7030 C.3      91  POP85      -0.0417
 11336 H15A         3.3280     3.6690   -11.9830 H        91  POP85       0.0778
 11337 H15B         1.9800     2.7500   -12.1360 H        91  POP85       0.0778
 11338 H15C         3.4300     1.8820   -12.0420 H        91  POP85       0.0778
 11339 C11          2.6510     5.2450    -9.7550 C.3      91  POP85       0.0954
 11340 H11A         1.9170     5.9020    -9.3560 H        91  POP85       0.0618
 11341 H11B         2.8930     5.3800   -10.9230 H        91  POP85       0.0618
 11342 P            4.9880     6.2690    -9.4180 P.3      91  POP85       0.2645
 11343 O13          5.8380     5.4440   -10.2860 O.co2    91  POP85      -0.5105
 11344 O14          5.6470     6.6810    -8.1730 O.co2    91  POP85      -0.5105
 11345 O12          3.8720     5.3220    -8.9950 O.3      91  POP85      -0.3154
 11346 O11          4.4140     7.5350   -10.2160 O.3      91  POP85      -0.3181
 11347 C1           3.2910     8.2960    -9.7560 C.3      91  POP85       0.0845
 11348 HA           2.9530     8.0270    -8.7320 H        91  POP85       0.0591
 11349 HB           2.4150     8.0910   -10.4210 H        91  POP85       0.0591
 11350 C2           3.6990     9.7610    -9.8130 C.3      91  POP85       0.1155
 11351 HS           3.8940     9.9840   -10.8760 H        91  POP85       0.0649
 11352 O21          4.8300    10.1030    -8.9950 O.3      91  POP85      -0.3072
 11353 C21          5.9840    10.2160    -9.5620 C.2      91  POP85       0.2626
 11354 O22          6.2880    10.0800   -10.7330 O.2      91  POP85      -0.2650
 11355 C22          7.0640    10.6270    -8.5940 C.3      91  POP85       0.0332
 11356 H2R          6.9960    11.7190    -8.4790 H        91  POP85       0.0366
 11357 H2S          8.0050    10.3730    -9.0600 H        91  POP85       0.0366
 11358 C3           2.5840    10.6420    -9.1660 C.3      91  POP85       0.0860
 11359 HX           2.8950    11.6990    -9.2690 H        91  POP85       0.0593
 11360 HY           2.7490    10.5410    -8.0630 H        91  POP85       0.0593
 11361 O31          1.2390    10.4420    -9.6860 O.3      91  POP85      -0.3125
 11362 C31          1.0190    10.9930   -10.8910 C.2      91  POP85       0.2622
 11363 O32          1.8630    11.5710   -11.5860 O.2      91  POP85      -0.2650
 11364 C32         -0.4380    10.9790   -11.1900 C.3      91  POP85       0.0332
 11365 H2X         -0.9450    10.2700   -10.5460 H        91  POP85       0.0366
 11366 H2Y         -0.6340    10.5580   -12.1850 H        91  POP85       0.0366
 11367 C23          7.0000     9.8570    -7.2160 C.3      91  POP85      -0.0441
 11368 H3R          8.0050     9.8860    -6.7390 H        91  POP85       0.0270
 11369 H3S          6.7850     8.8150    -7.4450 H        91  POP85       0.0270
 11370 C24          5.9660    10.3680    -6.2480 C.3      91  POP85      -0.0526
 11371 H4R          4.9560    10.0990    -6.5360 H        91  POP85       0.0265
 11372 H4S          6.1780    11.4970    -6.2930 H        91  POP85       0.0265
 11373 C25          6.3030     9.7950    -4.9340 C.3      91  POP85      -0.0530
 11374 H5R          5.6160    10.2770    -4.1790 H        91  POP85       0.0265
 11375 H5S          7.3180    10.1200    -4.5990 H        91  POP85       0.0265
 11376 C26          5.8870     8.3180    -4.8650 C.3      91  POP85      -0.0528
 11377 H6R          6.5660     7.7080    -5.4680 H        91  POP85       0.0265
 11378 H6S          4.9230     8.2740    -5.3350 H        91  POP85       0.0265
 11379 C27          5.8730     7.6770    -3.3930 C.3      91  POP85      -0.0496
 11380 H7R          5.5040     8.3780    -2.7260 H        91  POP85       0.0268
 11381 H7S          6.8970     7.5140    -3.1450 H        91  POP85       0.0268
 11382 C28          4.8480     6.4480    -3.3270 C.3      91  POP85      -0.0348
 11383 H8R          5.2730     5.6650    -3.9680 H        91  POP85       0.0307
 11384 H8S          3.8810     6.8720    -3.7140 H        91  POP85       0.0307
 11385 C29          4.5820     5.9650    -1.9120 C.2      91  POP85      -0.0879
 11386 H91          5.5230     5.8680    -1.3070 H        91  POP85       0.0569
 11387 C210         3.4310     5.7160    -1.2110 C.2      91  POP85      -0.0879
 11388 H101         3.4290     5.3390    -0.2020 H        91  POP85       0.0569
 11389 C211         2.0340     5.7170    -1.7840 C.3      91  POP85      -0.0348
 11390 H11R         1.8530     4.6430    -2.1270 H        91  POP85       0.0307
 11391 H11S         1.8820     6.3120    -2.7200 H        91  POP85       0.0307
 11392 C212         0.9850     6.1240    -0.8070 C.3      91  POP85      -0.0496
 11393 H12R         1.1920     7.1830    -0.5770 H        91  POP85       0.0268
 11394 H12S         1.1150     5.4620     0.0800 H        91  POP85       0.0268
 11395 C213        -0.5180     6.0410    -1.1590 C.3      91  POP85      -0.0528
 11396 H13R        -1.1200     6.1150    -0.1920 H        91  POP85       0.0265
 11397 H13S        -0.6890     5.0260    -1.4580 H        91  POP85       0.0265
 11398 C214        -0.9190     7.2670    -2.0760 C.3      91  POP85      -0.0530
 11399 H14R        -0.3330     7.2970    -3.0400 H        91  POP85       0.0265
 11400 H14S        -0.6640     8.2380    -1.5080 H        91  POP85       0.0265
 11401 C215        -2.3180     7.3790    -2.5970 C.3      91  POP85      -0.0531
 11402 H15R        -2.9230     7.6840    -1.7410 H        91  POP85       0.0265
 11403 H15S        -2.7150     6.5060    -3.0650 H        91  POP85       0.0265
 11404 C216        -2.4330     8.4380    -3.6980 C.3      91  POP85      -0.0533
 11405 H16R        -1.8940     8.1170    -4.6150 H        91  POP85       0.0265
 11406 H16S        -1.9530     9.4500    -3.3470 H        91  POP85       0.0265
 11407 C217        -3.8700     8.7760    -4.0670 C.3      91  POP85      -0.0559
 11408 H17R        -4.1450     9.5540    -3.3090 H        91  POP85       0.0263
 11409 H17S        -4.6030     7.9500    -3.8050 H        91  POP85       0.0263
 11410 C218        -4.1230     9.3830    -5.4070 C.3      91  POP85      -0.0653
 11411 H18R        -5.2420     9.3720    -5.6030 H        91  POP85       0.0230
 11412 H18S        -3.5910     8.8770    -6.1730 H        91  POP85       0.0230
 11413 H18T        -3.8500    10.4900    -5.4580 H        91  POP85       0.0230
 11414 C33         -1.1400    12.3730   -11.2490 C.3      91  POP85      -0.0441
 11415 H3X         -1.8770    12.3320   -12.0770 H        91  POP85       0.0270
 11416 H3Y         -0.2890    13.1040   -11.4760 H        91  POP85       0.0270
 11417 C34         -1.9420    12.8850   -10.0130 C.3      91  POP85      -0.0526
 11418 H4X         -2.8620    12.3050    -9.9770 H        91  POP85       0.0265
 11419 H4Y         -2.2800    13.9880   -10.0610 H        91  POP85       0.0265
 11420 C35         -1.1510    12.7220    -8.6440 C.3      91  POP85      -0.0530
 11421 H5X         -0.2040    13.3320    -8.6600 H        91  POP85       0.0265
 11422 H5Y         -0.8030    11.7040    -8.4560 H        91  POP85       0.0265
 11423 C36         -1.8620    13.2910    -7.3930 C.3      91  POP85      -0.0531
 11424 H6X         -2.7340    12.5820    -7.2870 H        91  POP85       0.0265
 11425 H6Y         -2.2130    14.3640    -7.5180 H        91  POP85       0.0265
 11426 C37         -1.0470    13.2710    -6.1810 C.3      91  POP85      -0.0531
 11427 H7X         -0.3770    14.0680    -6.1580 H        91  POP85       0.0265
 11428 H7Y         -0.5520    12.2690    -6.0610 H        91  POP85       0.0265
 11429 C38         -1.8650    13.4250    -4.8500 C.3      91  POP85      -0.0531
 11430 H8X         -2.7540    12.7190    -4.8310 H        91  POP85       0.0265
 11431 H8Y         -2.4920    14.3350    -4.8090 H        91  POP85       0.0265
 11432 C39         -1.1320    13.1150    -3.5790 C.3      91  POP85      -0.0531
 11433 H9X         -0.6510    14.0600    -3.2540 H        91  POP85       0.0265
 11434 H9Y         -0.3110    12.3800    -3.6230 H        91  POP85       0.0265
 11435 C310        -2.1680    12.7050    -2.5300 C.3      91  POP85      -0.0531
 11436 H10X        -2.6120    11.6830    -2.6820 H        91  POP85       0.0265
 11437 H10Y        -2.9740    13.5020    -2.6040 H        91  POP85       0.0265
 11438 C311        -1.5830    12.6930    -1.0670 C.3      91  POP85      -0.0531
 11439 H11X        -2.4850    12.9350    -0.4510 H        91  POP85       0.0265
 11440 H11Y        -0.9830    13.6310    -0.9350 H        91  POP85       0.0265
 11441 C312        -0.8740    11.3620    -0.6320 C.3      91  POP85      -0.0531
 11442 H12X        -0.0020    11.1620    -1.3020 H        91  POP85       0.0265
 11443 H12Y        -1.6870    10.6010    -0.8490 H        91  POP85       0.0265
 11444 C313        -0.3600    11.3770     0.8390 C.3      91  POP85      -0.0531
 11445 H13X        -1.1420    11.9640     1.3890 H        91  POP85       0.0265
 11446 H13Y         0.6400    11.7610     1.0570 H        91  POP85       0.0265
 11447 C314        -0.4750    10.0070     1.4520 C.3      91  POP85      -0.0533
 11448 H14X         0.1940     9.2900     0.8600 H        91  POP85       0.0265
 11449 H14Y        -1.3840     9.4980     1.4560 H        91  POP85       0.0265
 11450 C315        -0.0590     9.9660     2.9170 C.3      91  POP85      -0.0559
 11451 H15X        -0.5100    10.9100     3.4360 H        91  POP85       0.0263
 11452 H15Y         1.0100     9.9780     3.0630 H        91  POP85       0.0263
 11453 C316        -0.7490     8.8480     3.6560 C.3      91  POP85      -0.0653
 11454 H16X        -1.7540     8.6700     3.3200 H        91  POP85       0.0230
 11455 H16Y        -0.7320     8.9520     4.7250 H        91  POP85       0.0230
 11456 H16Z        -0.2330     7.8260     3.4420 H        91  POP85       0.0230
 11457 N            8.4700   -23.6430   -24.6130 N.3      92  POP86       0.2385
 11458 C12          8.2390   -23.9590   -23.1450 C.3      92  POP86      -0.0064
 11459 H12A         8.1260   -25.0030   -22.9530 H        92  POP86       0.0838
 11460 H12B         7.3470   -23.5140   -22.7480 H        92  POP86       0.0838
 11461 C13          9.3660   -24.6530   -25.2500 C.3      92  POP86      -0.0417
 11462 H13A         9.5320   -24.4290   -26.3150 H        92  POP86       0.0778
 11463 H13B        10.2450   -24.8670   -24.6710 H        92  POP86       0.0778
 11464 H13C         8.8130   -25.5650   -25.3310 H        92  POP86       0.0778
 11465 C14          7.1480   -23.6590   -25.3020 C.3      92  POP86      -0.0417
 11466 H14A         7.2480   -23.4370   -26.2840 H        92  POP86       0.0778
 11467 H14B         6.7260   -24.7220   -25.3990 H        92  POP86       0.0778
 11468 H14C         6.3810   -22.9770   -24.9530 H        92  POP86       0.0778
 11469 C15          9.0690   -22.2550   -24.7550 C.3      92  POP86      -0.0417
 11470 H15A         9.2930   -22.0070   -25.7400 H        92  POP86       0.0778
 11471 H15B         9.9540   -22.0880   -24.1800 H        92  POP86       0.0778
 11472 H15C         8.4430   -21.4880   -24.3790 H        92  POP86       0.0778
 11473 C11          9.3110   -23.6370   -22.1120 C.3      92  POP86       0.0954
 11474 H11A         8.8200   -23.8370   -21.0980 H        92  POP86       0.0618
 11475 H11B         9.6980   -22.6070   -22.1230 H        92  POP86       0.0618
 11476 P           10.6850   -25.8570   -21.9400 P.3      92  POP86       0.2645
 11477 O13         12.0020   -26.3540   -22.4260 O.co2    92  POP86      -0.5105
 11478 O14          9.4660   -26.6480   -22.2760 O.co2    92  POP86      -0.5105
 11479 O12         10.4420   -24.4480   -22.4730 O.3      92  POP86      -0.3154
 11480 O11         10.7660   -25.6650   -20.3580 O.3      92  POP86      -0.3181
 11481 C1          11.8660   -24.8690   -19.9580 C.3      92  POP86       0.0845
 11482 HA          11.8370   -23.7820   -20.2720 H        92  POP86       0.0591
 11483 HB          12.8130   -25.1920   -20.4250 H        92  POP86       0.0591
 11484 C2          12.1790   -24.9420   -18.4510 C.3      92  POP86       0.1155
 11485 HS          13.1470   -24.4000   -18.2770 H        92  POP86       0.0649
 11486 O21         12.2350   -26.2780   -18.0010 O.3      92  POP86      -0.3072
 11487 C21         13.3680   -26.8720   -17.8390 C.2      92  POP86       0.2626
 11488 O22         14.4590   -26.4020   -18.0450 O.2      92  POP86      -0.2650
 11489 C22         13.1000   -28.3870   -17.4700 C.3      92  POP86       0.0332
 11490 H2R         13.8570   -29.0250   -17.7660 H        92  POP86       0.0366
 11491 H2S         12.3090   -28.5900   -18.2310 H        92  POP86       0.0366
 11492 C3          11.1470   -24.2520   -17.5700 C.3      92  POP86       0.0860
 11493 HX          10.2870   -24.5070   -18.1800 H        92  POP86       0.0593
 11494 HY          11.2910   -23.1260   -17.5540 H        92  POP86       0.0593
 11495 O31         10.8620   -24.7660   -16.2310 O.3      92  POP86      -0.3125
 11496 C31         11.8250   -24.5070   -15.3150 C.2      92  POP86       0.2622
 11497 O32         12.8810   -23.8840   -15.5440 O.2      92  POP86      -0.2650
 11498 C32         11.4650   -25.0320   -13.9990 C.3      92  POP86       0.0332
 11499 H2X         10.4710   -25.4520   -14.1010 H        92  POP86       0.0366
 11500 H2Y         11.3690   -24.1200   -13.3900 H        92  POP86       0.0366
 11501 C23         12.5630   -28.7040   -15.9810 C.3      92  POP86      -0.0441
 11502 H3R         11.9170   -29.6430   -16.0820 H        92  POP86       0.0270
 11503 H3S         11.8680   -27.7460   -15.7150 H        92  POP86       0.0270
 11504 C24         13.7850   -28.9600   -15.0120 C.3      92  POP86      -0.0526
 11505 H4R         14.2500   -27.9930   -14.9250 H        92  POP86       0.0265
 11506 H4S         14.5240   -29.5790   -15.5390 H        92  POP86       0.0265
 11507 C25         13.4560   -29.6100   -13.7060 C.3      92  POP86      -0.0530
 11508 H5R         12.4710   -29.2030   -13.3380 H        92  POP86       0.0265
 11509 H5S         14.1850   -29.2890   -12.9240 H        92  POP86       0.0265
 11510 C26         13.3630   -31.1670   -13.6370 C.3      92  POP86      -0.0528
 11511 H6R         14.2560   -31.6220   -14.1240 H        92  POP86       0.0265
 11512 H6S         12.4030   -31.4580   -14.0810 H        92  POP86       0.0265
 11513 C27         13.4240   -31.6180   -12.1660 C.3      92  POP86      -0.0496
 11514 H7R         12.9420   -32.6150   -12.0140 H        92  POP86       0.0268
 11515 H7S         12.8730   -30.9280   -11.5510 H        92  POP86       0.0268
 11516 C28         14.9140   -31.7910   -11.6820 C.3      92  POP86      -0.0348
 11517 H8R         15.4420   -30.8140   -11.7480 H        92  POP86       0.0307
 11518 H8S         15.4440   -32.3090   -12.4640 H        92  POP86       0.0307
 11519 C29         15.0140   -32.4800   -10.3270 C.2      92  POP86      -0.0879
 11520 H91         15.2400   -33.5620   -10.3450 H        92  POP86       0.0569
 11521 C210        14.5520   -31.9920    -9.1910 C.2      92  POP86      -0.0879
 11522 H101        14.7440   -32.5200    -8.2720 H        92  POP86       0.0569
 11523 C211        14.0870   -30.5260    -9.1070 C.3      92  POP86      -0.0348
 11524 H11R        13.6860   -30.0290   -10.0130 H        92  POP86       0.0307
 11525 H11S        14.9440   -29.8420    -8.8740 H        92  POP86       0.0307
 11526 C212        12.9930   -30.4520    -8.0670 C.3      92  POP86      -0.0496
 11527 H12R        12.3390   -31.2800    -8.2220 H        92  POP86       0.0268
 11528 H12S        12.4470   -29.4970    -8.2040 H        92  POP86       0.0268
 11529 C213        13.5050   -30.4050    -6.6070 C.3      92  POP86      -0.0528
 11530 H13R        14.2250   -29.5790    -6.5940 H        92  POP86       0.0265
 11531 H13S        13.9680   -31.3590    -6.2970 H        92  POP86       0.0265
 11532 C214        12.3370   -30.1880    -5.6750 C.3      92  POP86      -0.0530
 11533 H14R        11.5750   -30.9550    -5.9040 H        92  POP86       0.0265
 11534 H14S        11.8330   -29.2280    -5.8900 H        92  POP86       0.0265
 11535 C215        12.8350   -30.1920    -4.2380 C.3      92  POP86      -0.0531
 11536 H15R        13.3120   -29.2550    -4.0490 H        92  POP86       0.0265
 11537 H15S        13.6320   -30.9940    -4.0850 H        92  POP86       0.0265
 11538 C216        11.5630   -30.3170    -3.3350 C.3      92  POP86      -0.0533
 11539 H16R        10.7520   -29.6890    -3.6340 H        92  POP86       0.0265
 11540 H16S        11.8770   -29.9390    -2.2570 H        92  POP86       0.0265
 11541 C217        11.0600   -31.7370    -3.4030 C.3      92  POP86      -0.0559
 11542 H17R        11.8450   -32.5500    -3.4380 H        92  POP86       0.0263
 11543 H17S        10.4410   -31.8080    -4.3490 H        92  POP86       0.0263
 11544 C218        10.0930   -32.1680    -2.2390 C.3      92  POP86      -0.0653
 11545 H18R         9.1840   -31.5610    -2.1320 H        92  POP86       0.0230
 11546 H18S        10.5720   -32.1170    -1.2080 H        92  POP86       0.0230
 11547 H18T         9.8570   -33.2730    -2.4270 H        92  POP86       0.0230
 11548 C33         12.5520   -25.9560   -13.4520 C.3      92  POP86      -0.0441
 11549 H3X         13.5100   -25.4320   -13.5330 H        92  POP86       0.0270
 11550 H3Y         12.4320   -26.8390   -14.1200 H        92  POP86       0.0270
 11551 C34         12.3440   -26.3400   -11.9490 C.3      92  POP86      -0.0526
 11552 H4X         13.1530   -27.0460   -11.6160 H        92  POP86       0.0265
 11553 H4Y         11.2690   -26.7280   -11.8200 H        92  POP86       0.0265
 11554 C35         12.6000   -25.2100   -10.9510 C.3      92  POP86      -0.0530
 11555 H5X         11.7950   -24.3870   -11.0010 H        92  POP86       0.0265
 11556 H5Y         13.4890   -24.6110   -11.1790 H        92  POP86       0.0265
 11557 C36         12.8100   -25.7190    -9.5300 C.3      92  POP86      -0.0531
 11558 H6X         12.9120   -24.7560    -8.9440 H        92  POP86       0.0265
 11559 H6Y         13.7910   -26.2380    -9.4360 H        92  POP86       0.0265
 11560 C37         11.6450   -26.5200    -8.8640 C.3      92  POP86      -0.0531
 11561 H7X         11.6260   -27.4350    -9.3930 H        92  POP86       0.0265
 11562 H7Y         10.6500   -25.9800    -8.8840 H        92  POP86       0.0265
 11563 C38         11.8890   -26.8650    -7.3660 C.3      92  POP86      -0.0531
 11564 H8X         12.7860   -27.3360    -7.1650 H        92  POP86       0.0265
 11565 H8Y         11.0360   -27.4440    -7.1000 H        92  POP86       0.0265
 11566 C39         11.7900   -25.6220    -6.4990 C.3      92  POP86      -0.0531
 11567 H9X         10.9870   -24.8960    -6.8200 H        92  POP86       0.0265
 11568 H9Y         12.7130   -25.0930    -6.6890 H        92  POP86       0.0265
 11569 C310        11.4640   -25.9130    -5.0620 C.3      92  POP86      -0.0531
 11570 H10X        12.0190   -25.2020    -4.4330 H        92  POP86       0.0265
 11571 H10Y        11.7500   -26.9380    -4.6630 H        92  POP86       0.0265
 11572 C311        10.0080   -25.7090    -4.7490 C.3      92  POP86      -0.0531
 11573 H11X         9.4690   -26.5170    -5.2730 H        92  POP86       0.0265
 11574 H11Y         9.6570   -24.7180    -5.0620 H        92  POP86       0.0265
 11575 C312         9.7620   -25.6740    -3.2190 C.3      92  POP86      -0.0531
 11576 H12X         8.7750   -25.2600    -3.0380 H        92  POP86       0.0265
 11577 H12Y        10.4880   -25.0140    -2.6460 H        92  POP86       0.0265
 11578 C313         9.7340   -27.0150    -2.5780 C.3      92  POP86      -0.0531
 11579 H13X        10.6570   -27.5440    -2.6330 H        92  POP86       0.0265
 11580 H13Y         9.0280   -27.5970    -3.1540 H        92  POP86       0.0265
 11581 C314         9.3090   -27.0780    -1.0710 C.3      92  POP86      -0.0533
 11582 H14X         8.2170   -27.0920    -1.1270 H        92  POP86       0.0265
 11583 H14Y         9.6500   -26.1770    -0.5370 H        92  POP86       0.0265
 11584 C315         9.7300   -28.3620    -0.3900 C.3      92  POP86      -0.0559
 11585 H15X        10.8230   -28.5600    -0.4390 H        92  POP86       0.0263
 11586 H15Y         9.3290   -29.2110    -1.0030 H        92  POP86       0.0263
 11587 C316         9.2750   -28.5480     1.0440 C.3      92  POP86      -0.0653
 11588 H16X         9.7140   -27.8020     1.6850 H        92  POP86       0.0230
 11589 H16Y         9.5960   -29.5710     1.4370 H        92  POP86       0.0230
 11590 H16Z         8.1860   -28.3950     1.1230 H        92  POP86       0.0230
 11591 N           17.8630    30.1130   -20.2610 N.3      93  POP87       0.2385
 11592 C12         18.9210    31.0350   -19.9560 C.3      93  POP87      -0.0064
 11593 H12A        18.4830    32.0130   -19.6480 H        93  POP87       0.0838
 11594 H12B        19.4300    31.2000   -20.9040 H        93  POP87       0.0838
 11595 C13         18.5090    28.8390   -20.6070 C.3      93  POP87      -0.0417
 11596 H13A        17.7720    28.0240   -20.7000 H        93  POP87       0.0778
 11597 H13B        19.0090    29.0260   -21.4800 H        93  POP87       0.0778
 11598 H13C        19.2800    28.5230   -19.9340 H        93  POP87       0.0778
 11599 C14         16.9340    29.9840   -19.1430 C.3      93  POP87      -0.0417
 11600 H14A        17.4780    29.5100   -18.2930 H        93  POP87       0.0778
 11601 H14B        16.6220    30.9890   -18.8010 H        93  POP87       0.0778
 11602 H14C        15.9860    29.4670   -19.3560 H        93  POP87       0.0778
 11603 C15         17.1530    30.6320   -21.4980 C.3      93  POP87      -0.0417
 11604 H15A        17.7930    30.9710   -22.2380 H        93  POP87       0.0778
 11605 H15B        16.4720    31.4030   -21.2290 H        93  POP87       0.0778
 11606 H15C        16.6360    29.7730   -21.8610 H        93  POP87       0.0778
 11607 C11         19.9010    30.6460   -18.9150 C.3      93  POP87       0.0954
 11608 H11A        19.3940    30.1310   -18.0290 H        93  POP87       0.0618
 11609 H11B        20.3270    31.5730   -18.5010 H        93  POP87       0.0618
 11610 P           21.9000    30.2150   -20.5350 P.3      93  POP87       0.2645
 11611 O13         21.0760    30.4590   -21.7040 O.co2    93  POP87      -0.5105
 11612 O14         23.0570    29.3170   -20.8200 O.co2    93  POP87      -0.5105
 11613 O12         20.9460    29.7470   -19.3780 O.3      93  POP87      -0.3154
 11614 O11         22.4520    31.5090   -19.9170 O.3      93  POP87      -0.3181
 11615 C1          23.6150    31.5870   -19.0910 C.3      93  POP87       0.0845
 11616 HA          24.2380    32.4230   -19.4350 H        93  POP87       0.0591
 11617 HB          24.2850    30.6610   -19.2540 H        93  POP87       0.0591
 11618 C2          23.2550    31.6220   -17.5910 C.3      93  POP87       0.1155
 11619 HS          22.4520    30.8450   -17.4710 H        93  POP87       0.0649
 11620 O21         22.8150    32.9230   -17.2500 O.3      93  POP87      -0.3072
 11621 C21         21.9390    33.0020   -16.1760 C.2      93  POP87       0.2626
 11622 O22         21.4390    32.0460   -15.6060 O.2      93  POP87      -0.2650
 11623 C22         22.0260    34.4260   -15.5310 C.3      93  POP87       0.0332
 11624 H2R         22.1290    34.2720   -14.4930 H        93  POP87       0.0366
 11625 H2S         21.1190    34.9560   -15.7160 H        93  POP87       0.0366
 11626 C3          24.4580    31.1890   -16.7230 C.3      93  POP87       0.0860
 11627 HX          25.1670    32.0400   -16.7930 H        93  POP87       0.0593
 11628 HY          24.8700    30.2590   -17.0730 H        93  POP87       0.0593
 11629 O31         24.1210    31.0280   -15.3260 O.3      93  POP87      -0.3125
 11630 C31         23.2890    29.9870   -15.0310 C.2      93  POP87       0.2622
 11631 O32         23.0080    29.1210   -15.8140 O.2      93  POP87      -0.2650
 11632 C32         22.8190    30.0100   -13.5860 C.3      93  POP87       0.0332
 11633 H2X         23.2690    29.0890   -13.1560 H        93  POP87       0.0366
 11634 H2Y         21.7420    29.8950   -13.4760 H        93  POP87       0.0366
 11635 C23         23.1990    35.3280   -16.0200 C.3      93  POP87      -0.0441
 11636 H3R         23.0450    36.3490   -15.6980 H        93  POP87       0.0270
 11637 H3S         23.0750    35.2520   -17.0730 H        93  POP87       0.0270
 11638 C24         24.5740    34.9160   -15.4220 C.3      93  POP87      -0.0526
 11639 H4R         25.3500    35.4600   -16.0340 H        93  POP87       0.0265
 11640 H4S         24.8700    33.8370   -15.7370 H        93  POP87       0.0265
 11641 C25         24.7800    35.1770   -13.9560 C.3      93  POP87      -0.0530
 11642 H5R         23.9450    34.6810   -13.3340 H        93  POP87       0.0265
 11643 H5S         24.8800    36.3170   -13.8160 H        93  POP87       0.0265
 11644 C26         26.1190    34.6410   -13.5490 C.3      93  POP87      -0.0528
 11645 H6R         26.9110    35.0820   -14.1940 H        93  POP87       0.0265
 11646 H6S         26.1770    33.5720   -13.7500 H        93  POP87       0.0265
 11647 C27         26.3870    34.9450   -12.0280 C.3      93  POP87      -0.0496
 11648 H7R         25.9080    34.0970   -11.5640 H        93  POP87       0.0268
 11649 H7S         25.9530    35.9060   -11.7400 H        93  POP87       0.0268
 11650 C28         27.8490    34.9510   -11.6390 C.3      93  POP87      -0.0348
 11651 H8R         28.4110    34.1110   -12.1260 H        93  POP87       0.0307
 11652 H8S         27.8670    34.7510   -10.5580 H        93  POP87       0.0307
 11653 C29         28.7050    36.1700   -11.9390 C.2      93  POP87      -0.0879
 11654 H91         28.7070    36.3950   -12.9820 H        93  POP87       0.0569
 11655 C210        29.3180    37.0190   -11.0500 C.2      93  POP87      -0.0879
 11656 H101        29.8560    37.8930   -11.4180 H        93  POP87       0.0569
 11657 C211        29.2090    36.8410    -9.5580 C.3      93  POP87      -0.0348
 11658 H11R        30.2430    37.0690    -9.1320 H        93  POP87       0.0307
 11659 H11S        29.0220    35.7790    -9.2750 H        93  POP87       0.0307
 11660 C212        28.1490    37.6900    -8.9100 C.3      93  POP87      -0.0496
 11661 H12R        27.2010    37.8410    -9.5500 H        93  POP87       0.0268
 11662 H12S        28.5130    38.7210    -8.7930 H        93  POP87       0.0268
 11663 C213        28.0280    37.2170    -7.4640 C.3      93  POP87      -0.0528
 11664 H13R        28.9760    36.8740    -7.1220 H        93  POP87       0.0265
 11665 H13S        27.2900    36.3150    -7.4480 H        93  POP87       0.0265
 11666 C214        27.4690    38.3790    -6.5970 C.3      93  POP87      -0.0530
 11667 H14R        26.7470    39.0720    -7.1720 H        93  POP87       0.0265
 11668 H14S        28.4060    38.9170    -6.4020 H        93  POP87       0.0265
 11669 C215        26.7070    38.0440    -5.2940 C.3      93  POP87      -0.0531
 11670 H15R        25.6860    37.6520    -5.7130 H        93  POP87       0.0265
 11671 H15S        26.3750    38.9590    -4.6640 H        93  POP87       0.0265
 11672 C216        27.2560    36.8860    -4.3930 C.3      93  POP87      -0.0533
 11673 H16R        27.5510    35.9620    -4.9850 H        93  POP87       0.0265
 11674 H16S        26.4480    36.4790    -3.7980 H        93  POP87       0.0265
 11675 C217        28.4010    37.2600    -3.4900 C.3      93  POP87      -0.0559
 11676 H17R        28.1570    38.2430    -3.0220 H        93  POP87       0.0263
 11677 H17S        29.3430    37.4600    -4.1810 H        93  POP87       0.0263
 11678 C218        28.6870    36.3220    -2.3390 C.3      93  POP87      -0.0653
 11679 H18R        29.4860    36.6670    -1.6170 H        93  POP87       0.0230
 11680 H18S        28.8780    35.3180    -2.7090 H        93  POP87       0.0230
 11681 H18T        27.6360    36.2910    -1.9090 H        93  POP87       0.0230
 11682 C33         23.4260    31.1930   -12.8510 C.3      93  POP87      -0.0441
 11683 H3X         22.8970    32.1020   -13.3630 H        93  POP87       0.0270
 11684 H3Y         24.4790    31.3890   -12.7940 H        93  POP87       0.0270
 11685 C34         22.8820    31.4050   -11.3830 C.3      93  POP87      -0.0526
 11686 H4X         21.7580    31.2990   -11.3660 H        93  POP87       0.0265
 11687 H4Y         22.8720    32.4380   -11.0880 H        93  POP87       0.0265
 11688 C35         23.6190    30.5520   -10.3240 C.3      93  POP87      -0.0530
 11689 H5X         24.5930    31.0580   -10.1300 H        93  POP87       0.0265
 11690 H5Y         23.7060    29.5260   -10.6160 H        93  POP87       0.0265
 11691 C36         22.8630    30.5740    -9.0130 C.3      93  POP87      -0.0531
 11692 H6X         21.8790    30.0460    -9.0390 H        93  POP87       0.0265
 11693 H6Y         22.6520    31.6090    -8.6120 H        93  POP87       0.0265
 11694 C37         23.7410    29.8900    -7.9850 C.3      93  POP87      -0.0531
 11695 H7X         24.7740    30.1980    -7.9400 H        93  POP87       0.0265
 11696 H7Y         23.7760    28.7800    -8.2860 H        93  POP87       0.0265
 11697 C38         23.0170    29.9240    -6.5660 C.3      93  POP87      -0.0531
 11698 H8X         22.0080    29.8210    -6.6020 H        93  POP87       0.0265
 11699 H8Y         23.1150    30.9780    -6.2110 H        93  POP87       0.0265
 11700 C39         23.4450    28.9090    -5.5200 C.3      93  POP87      -0.0531
 11701 H9X         24.5470    28.7750    -5.5220 H        93  POP87       0.0265
 11702 H9Y         23.0300    27.9120    -5.8890 H        93  POP87       0.0265
 11703 C310        22.8530    29.0620    -4.1080 C.3      93  POP87      -0.0531
 11704 H10X        23.3020    28.2530    -3.4950 H        93  POP87       0.0265
 11705 H10Y        21.7240    29.1330    -4.1760 H        93  POP87       0.0265
 11706 C311        23.3390    30.3450    -3.4920 C.3      93  POP87      -0.0531
 11707 H11X        22.8010    30.5520    -2.5520 H        93  POP87       0.0265
 11708 H11Y        22.9070    31.1190    -4.0710 H        93  POP87       0.0265
 11709 C312        24.7940    30.5060    -3.1830 C.3      93  POP87      -0.0531
 11710 H12X        25.3120    30.6630    -4.1750 H        93  POP87       0.0265
 11711 H12Y        25.2600    29.5980    -2.7190 H        93  POP87       0.0265
 11712 C313        25.2190    31.5990    -2.2670 C.3      93  POP87      -0.0531
 11713 H13X        26.2770    31.4370    -1.9370 H        93  POP87       0.0265
 11714 H13Y        24.5050    31.7200    -1.4110 H        93  POP87       0.0265
 11715 C314        25.0170    33.0400    -2.9430 C.3      93  POP87      -0.0533
 11716 H14X        24.1770    33.0480    -3.5910 H        93  POP87       0.0265
 11717 H14Y        25.9300    33.2350    -3.5920 H        93  POP87       0.0265
 11718 C315        24.8310    34.1900    -1.8990 C.3      93  POP87      -0.0559
 11719 H15X        23.8030    33.9090    -1.4230 H        93  POP87       0.0263
 11720 H15Y        24.5840    35.1600    -2.2700 H        93  POP87       0.0263
 11721 C316        25.8180    34.3750    -0.7960 C.3      93  POP87      -0.0653
 11722 H16X        26.7900    34.5090    -1.2580 H        93  POP87       0.0230
 11723 H16Y        25.9010    33.4870    -0.1500 H        93  POP87       0.0230
 11724 H16Z        25.6660    35.2530    -0.1240 H        93  POP87       0.0230
 11725 N           21.8440     6.0430   -19.6770 N.3      94  POP88       0.2385
 11726 C12         21.9740     7.3010   -20.5180 C.3      94  POP88      -0.0064
 11727 H12A        22.3680     7.0430   -21.4860 H        94  POP88       0.0838
 11728 H12B        22.6490     7.9660   -20.1480 H        94  POP88       0.0838
 11729 C13         21.7140     6.4560   -18.2770 C.3      94  POP88      -0.0417
 11730 H13A        20.8410     7.1230   -18.2800 H        94  POP88       0.0778
 11731 H13B        21.5790     5.5120   -17.6390 H        94  POP88       0.0778
 11732 H13C        22.6210     6.9220   -17.9040 H        94  POP88       0.0778
 11733 C14         20.5920     5.2560   -20.0970 C.3      94  POP88      -0.0417
 11734 H14A        20.3570     4.3630   -19.5050 H        94  POP88       0.0778
 11735 H14B        19.7160     5.8570   -19.8980 H        94  POP88       0.0778
 11736 H14C        20.6890     5.0100   -21.1800 H        94  POP88       0.0778
 11737 C15         23.0680     5.1320   -19.7770 C.3      94  POP88      -0.0417
 11738 H15A        22.9510     4.2170   -19.1730 H        94  POP88       0.0778
 11739 H15B        23.9560     5.5820   -19.4760 H        94  POP88       0.0778
 11740 H15C        23.1330     4.9130   -20.8220 H        94  POP88       0.0778
 11741 C11         20.7400     8.1430   -20.7480 C.3      94  POP88       0.0954
 11742 H11A        20.0490     7.5370   -21.4250 H        94  POP88       0.0618
 11743 H11B        21.1390     9.0250   -21.3370 H        94  POP88       0.0618
 11744 P           19.1730     9.7010   -19.3520 P.3      94  POP88       0.2645
 11745 O13         17.9700     9.6680   -20.2190 O.co2    94  POP88      -0.5105
 11746 O14         20.0680    10.8340   -19.4150 O.co2    94  POP88      -0.5105
 11747 O12         20.0620     8.4570   -19.5310 O.3      94  POP88      -0.3154
 11748 O11         18.6620     9.4570   -17.8630 O.3      94  POP88      -0.3181
 11749 C1          17.6830     8.4050   -17.7430 C.3      94  POP88       0.0845
 11750 HA          18.0760     7.4010   -18.0960 H        94  POP88       0.0591
 11751 HB          16.7250     8.4980   -18.3260 H        94  POP88       0.0591
 11752 C2          17.2810     8.2280   -16.2810 C.3      94  POP88       0.1155
 11753 HS          16.5060     7.4530   -16.2460 H        94  POP88       0.0649
 11754 O21         16.7040     9.4050   -15.7150 O.3      94  POP88      -0.3072
 11755 C21         15.5380     9.7540   -16.2080 C.2      94  POP88       0.2626
 11756 O22         14.9290     9.0930   -17.0720 O.2      94  POP88      -0.2650
 11757 C22         14.9370    10.8950   -15.3850 C.3      94  POP88       0.0332
 11758 H2R         14.1010    10.3700   -14.8950 H        94  POP88       0.0366
 11759 H2S         14.5080    11.6650   -16.0930 H        94  POP88       0.0366
 11760 C3          18.5400     7.5820   -15.5100 C.3      94  POP88       0.0860
 11761 HX          19.4470     8.2350   -15.5990 H        94  POP88       0.0593
 11762 HY          18.8170     6.7260   -16.0700 H        94  POP88       0.0593
 11763 O31         18.1390     7.1930   -14.1920 O.3      94  POP88      -0.3125
 11764 C31         18.3290     8.1690   -13.2950 C.2      94  POP88       0.2622
 11765 O32         18.6810     9.3010   -13.5410 O.2      94  POP88      -0.2650
 11766 C32         18.1430     7.6260   -11.8960 C.3      94  POP88       0.0332
 11767 H2X         19.1800     7.5240   -11.4740 H        94  POP88       0.0366
 11768 H2Y         17.8010     6.5760   -12.0150 H        94  POP88       0.0366
 11769 C23         15.8020    11.5260   -14.3160 C.3      94  POP88      -0.0441
 11770 H3R         16.6550    12.1330   -14.8140 H        94  POP88       0.0270
 11771 H3S         16.2160    10.7630   -13.6500 H        94  POP88       0.0270
 11772 C24         15.0070    12.3950   -13.2760 C.3      94  POP88      -0.0526
 11773 H4R         14.0950    11.8890   -12.9790 H        94  POP88       0.0265
 11774 H4S         14.7200    13.3900   -13.6810 H        94  POP88       0.0265
 11775 C25         15.9390    12.6600   -12.1040 C.3      94  POP88      -0.0530
 11776 H5R         16.1460    11.8170   -11.3880 H        94  POP88       0.0265
 11777 H5S         15.3480    13.4300   -11.4810 H        94  POP88       0.0265
 11778 C26         17.2530    13.3060   -12.5850 C.3      94  POP88      -0.0528
 11779 H6R         17.1860    14.1000   -13.3560 H        94  POP88       0.0265
 11780 H6S         17.8230    12.4450   -12.9530 H        94  POP88       0.0265
 11781 C27         18.0220    14.0390   -11.4200 C.3      94  POP88      -0.0496
 11782 H7R         17.4490    14.8610   -11.0200 H        94  POP88       0.0268
 11783 H7S         19.0010    14.3400   -11.8690 H        94  POP88       0.0268
 11784 C28         18.2940    13.0800   -10.2030 C.3      94  POP88      -0.0348
 11785 H8R         17.4140    12.5310    -9.8620 H        94  POP88       0.0307
 11786 H8S         18.6850    13.7130    -9.3540 H        94  POP88       0.0307
 11787 C29         19.3170    12.0060   -10.5800 C.2      94  POP88      -0.0879
 11788 H91         18.8850    11.1200   -10.9510 H        94  POP88       0.0569
 11789 C210        20.6380    12.0860   -10.3700 C.2      94  POP88      -0.0879
 11790 H101        21.2050    11.2920   -10.8310 H        94  POP88       0.0569
 11791 C211        21.4180    13.2650    -9.7030 C.3      94  POP88      -0.0348
 11792 H11R        20.8270    14.1900    -9.4870 H        94  POP88       0.0307
 11793 H11S        22.1960    13.7170   -10.3310 H        94  POP88       0.0307
 11794 C212        22.2080    12.7990    -8.3830 C.3      94  POP88      -0.0496
 11795 H12R        22.8290    13.5750    -7.9340 H        94  POP88       0.0268
 11796 H12S        22.8380    11.9460    -8.7010 H        94  POP88       0.0268
 11797 C213        21.2090    12.3840    -7.2720 C.3      94  POP88      -0.0528
 11798 H13R        20.8550    11.3540    -7.5070 H        94  POP88       0.0265
 11799 H13S        20.3050    13.0830    -7.2570 H        94  POP88       0.0265
 11800 C214        21.7960    12.3440    -5.8670 C.3      94  POP88      -0.0530
 11801 H14R        22.1600    13.3590    -5.6700 H        94  POP88       0.0265
 11802 H14S        22.6560    11.6640    -5.8730 H        94  POP88       0.0265
 11803 C215        20.7730    11.9240    -4.7580 C.3      94  POP88      -0.0531
 11804 H15R        20.3930    10.9050    -4.9100 H        94  POP88       0.0265
 11805 H15S        19.8840    12.6700    -4.7680 H        94  POP88       0.0265
 11806 C216        21.2950    12.0390    -3.3490 C.3      94  POP88      -0.0533
 11807 H16R        21.6060    13.0880    -3.2670 H        94  POP88       0.0265
 11808 H16S        22.2350    11.4290    -3.2450 H        94  POP88       0.0265
 11809 C217        20.3200    11.6350    -2.2620 C.3      94  POP88      -0.0559
 11810 H17R        20.1690    10.4940    -2.3620 H        94  POP88       0.0263
 11811 H17S        19.3740    12.0950    -2.4470 H        94  POP88       0.0263
 11812 C218        20.9100    11.8620    -0.8500 C.3      94  POP88      -0.0653
 11813 H18R        20.1150    11.6230    -0.0560 H        94  POP88       0.0230
 11814 H18S        21.2520    12.8980    -0.6880 H        94  POP88       0.0230
 11815 H18T        21.8100    11.1830    -0.8050 H        94  POP88       0.0230
 11816 C33         17.2860     8.5280   -11.0060 C.3      94  POP88      -0.0441
 11817 H3X         16.2890     8.6040   -11.3670 H        94  POP88       0.0270
 11818 H3Y         17.6950     9.5280   -11.0570 H        94  POP88       0.0270
 11819 C34         17.3700     8.1950    -9.5380 C.3      94  POP88      -0.0526
 11820 H4X         18.4710     8.3820    -9.2870 H        94  POP88       0.0265
 11821 H4Y         17.2110     7.1640    -9.2940 H        94  POP88       0.0265
 11822 C35         16.5210     9.1940    -8.7620 C.3      94  POP88      -0.0530
 11823 H5X         15.4260     9.2340    -9.0620 H        94  POP88       0.0265
 11824 H5Y         16.9780    10.1360    -9.0060 H        94  POP88       0.0265
 11825 C36         16.6680     9.0050    -7.1700 C.3      94  POP88      -0.0531
 11826 H6X         17.7540     9.1600    -7.0550 H        94  POP88       0.0265
 11827 H6Y         16.2630     8.0470    -6.7800 H        94  POP88       0.0265
 11828 C37         16.1570    10.2050    -6.4820 C.3      94  POP88      -0.0531
 11829 H7X         15.0910    10.2020    -6.4620 H        94  POP88       0.0265
 11830 H7Y         16.4770    11.1360    -6.9350 H        94  POP88       0.0265
 11831 C38         16.7660    10.2900    -5.0500 C.3      94  POP88      -0.0531
 11832 H8X         17.0060    11.3930    -4.8640 H        94  POP88       0.0265
 11833 H8Y         17.7470     9.7470    -4.9980 H        94  POP88       0.0265
 11834 C39         15.7370     9.9400    -3.9050 C.3      94  POP88      -0.0531
 11835 H9X         15.3450     8.8480    -3.9140 H        94  POP88       0.0265
 11836 H9Y         14.8830    10.6570    -3.9840 H        94  POP88       0.0265
 11837 C310        16.4060    10.2360    -2.5180 C.3      94  POP88      -0.0531
 11838 H10X        17.4290    10.7000    -2.7260 H        94  POP88       0.0265
 11839 H10Y        16.5220     9.3190    -1.9470 H        94  POP88       0.0265
 11840 C311        15.5360    11.1690    -1.7260 C.3      94  POP88      -0.0531
 11841 H11X        14.5520    10.6170    -1.5990 H        94  POP88       0.0265
 11842 H11Y        15.2310    12.1220    -2.2600 H        94  POP88       0.0265
 11843 C312        15.9540    11.5340    -0.2570 C.3      94  POP88      -0.0531
 11844 H12X        15.8940    10.5500     0.2920 H        94  POP88       0.0265
 11845 H12Y        15.1760    12.2200     0.1040 H        94  POP88       0.0265
 11846 C313        17.3440    12.1740    -0.0690 C.3      94  POP88      -0.0531
 11847 H13X        17.2370    13.0310    -0.7060 H        94  POP88       0.0265
 11848 H13Y        18.0760    11.4620    -0.4750 H        94  POP88       0.0265
 11849 C314        17.6450    12.7180     1.3330 C.3      94  POP88      -0.0533
 11850 H14X        16.9180    13.5140     1.4050 H        94  POP88       0.0265
 11851 H14Y        18.6660    13.1690     1.3510 H        94  POP88       0.0265
 11852 C315        17.6870    11.6750     2.4470 C.3      94  POP88      -0.0559
 11853 H15X        18.4270    10.7950     2.2590 H        94  POP88       0.0263
 11854 H15Y        16.6810    11.1030     2.4080 H        94  POP88       0.0263
 11855 C316        18.0380    12.2730     3.7690 C.3      94  POP88      -0.0653
 11856 H16X        18.6990    13.1940     3.5970 H        94  POP88       0.0230
 11857 H16Y        18.6200    11.6640     4.4230 H        94  POP88       0.0230
 11858 H16Z        17.1070    12.6910     4.1750 H        94  POP88       0.0230
 11859 N           16.4670   -28.5660   -25.6850 N.3      95  POP89       0.2385
 11860 C12         17.1050   -29.1150   -24.4200 C.3      95  POP89      -0.0064
 11861 H12A        17.8160   -28.2930   -23.9890 H        95  POP89       0.0838
 11862 H12B        17.7890   -29.9040   -24.6450 H        95  POP89       0.0838
 11863 C13         15.4360   -27.5230   -25.2290 C.3      95  POP89      -0.0417
 11864 H13A        14.7640   -27.8820   -24.4850 H        95  POP89       0.0778
 11865 H13B        16.0010   -26.6520   -24.8890 H        95  POP89       0.0778
 11866 H13C        14.8000   -27.2670   -25.9950 H        95  POP89       0.0778
 11867 C14         17.4800   -27.9130   -26.5740 C.3      95  POP89      -0.0417
 11868 H14A        17.8520   -27.1210   -25.9810 H        95  POP89       0.0778
 11869 H14B        18.4020   -28.5330   -26.7420 H        95  POP89       0.0778
 11870 H14C        17.2120   -27.5600   -27.5560 H        95  POP89       0.0778
 11871 C15         15.7920   -29.6920   -26.4440 C.3      95  POP89      -0.0417
 11872 H15A        14.9940   -29.4070   -27.0540 H        95  POP89       0.0778
 11873 H15B        15.4220   -30.3700   -25.7020 H        95  POP89       0.0778
 11874 H15C        16.3680   -30.3750   -27.0170 H        95  POP89       0.0778
 11875 C11         16.2750   -29.5410   -23.2810 C.3      95  POP89       0.0954
 11876 H11A        15.5400   -28.8050   -23.0200 H        95  POP89       0.0618
 11877 H11B        16.8540   -29.6990   -22.3490 H        95  POP89       0.0618
 11878 P           16.0360   -32.1770   -23.5140 P.3      95  POP89       0.2645
 11879 O13         17.4610   -32.2360   -23.9140 O.co2    95  POP89      -0.5105
 11880 O14         15.1100   -33.0390   -24.2750 O.co2    95  POP89      -0.5105
 11881 O12         15.4920   -30.6610   -23.6650 O.3      95  POP89      -0.3154
 11882 O11         15.8690   -32.5350   -22.0060 O.3      95  POP89      -0.3181
 11883 C1          14.6780   -32.1520   -21.3900 C.3      95  POP89       0.0845
 11884 HA          13.8360   -32.8700   -21.6680 H        95  POP89       0.0591
 11885 HB          14.3220   -31.1560   -21.6880 H        95  POP89       0.0591
 11886 C2          14.8310   -32.2260   -19.8270 C.3      95  POP89       0.1155
 11887 HS          15.2610   -33.1750   -19.6620 H        95  POP89       0.0649
 11888 O21         13.5000   -32.0550   -19.2200 O.3      95  POP89      -0.3072
 11889 C21         13.2210   -32.8500   -18.1920 C.2      95  POP89       0.2626
 11890 O22         14.0530   -33.3250   -17.4840 O.2      95  POP89      -0.2650
 11891 C22         11.7270   -33.0130   -17.9830 C.3      95  POP89       0.0332
 11892 H2R         11.4900   -34.1120   -18.1420 H        95  POP89       0.0366
 11893 H2S         11.1390   -32.4560   -18.6790 H        95  POP89       0.0366
 11894 C3          15.8540   -31.1730   -19.2320 C.3      95  POP89       0.0860
 11895 HX          15.4310   -30.1730   -19.5800 H        95  POP89       0.0593
 11896 HY          16.8930   -31.2200   -19.7360 H        95  POP89       0.0593
 11897 O31         15.9500   -31.3530   -17.7700 O.3      95  POP89      -0.3125
 11898 C31         16.8270   -32.2470   -17.2680 C.2      95  POP89       0.2622
 11899 O32         17.4830   -33.0260   -17.8770 O.2      95  POP89      -0.2650
 11900 C32         16.9550   -31.9410   -15.7500 C.3      95  POP89       0.0332
 11901 H2X         16.0780   -32.5070   -15.2290 H        95  POP89       0.0366
 11902 H2Y         16.8570   -30.8550   -15.7010 H        95  POP89       0.0366
 11903 C23         11.3420   -32.6570   -16.5310 C.3      95  POP89      -0.0441
 11904 H3R         11.5750   -31.5990   -16.3670 H        95  POP89       0.0270
 11905 H3S         12.0520   -33.2900   -15.8880 H        95  POP89       0.0270
 11906 C24          9.9150   -32.8070   -16.0450 C.3      95  POP89      -0.0526
 11907 H4R          9.6420   -33.8690   -16.1160 H        95  POP89       0.0265
 11908 H4S          9.2900   -32.2050   -16.7570 H        95  POP89       0.0265
 11909 C25          9.6900   -32.5030   -14.5500 C.3      95  POP89      -0.0530
 11910 H5R         10.3760   -33.1030   -13.9390 H        95  POP89       0.0265
 11911 H5S          8.6610   -32.7990   -14.2920 H        95  POP89       0.0265
 11912 C26          9.6630   -30.9870   -14.2150 C.3      95  POP89      -0.0528
 11913 H6R          8.7580   -30.5550   -14.7550 H        95  POP89       0.0265
 11914 H6S         10.6130   -30.5140   -14.5740 H        95  POP89       0.0265
 11915 C27          9.3310   -30.5900   -12.7610 C.3      95  POP89      -0.0496
 11916 H7R         10.2460   -30.8880   -12.0980 H        95  POP89       0.0268
 11917 H7S          8.5610   -31.2850   -12.4010 H        95  POP89       0.0268
 11918 C28          9.0650   -29.0600   -12.5780 C.3      95  POP89      -0.0348
 11919 H8R          8.1150   -28.7730   -13.0660 H        95  POP89       0.0307
 11920 H8S          9.8790   -28.5590   -13.2020 H        95  POP89       0.0307
 11921 C29          9.1460   -28.7590   -11.0190 C.2      95  POP89      -0.0879
 11922 H91          9.5070   -29.6120   -10.3740 H        95  POP89       0.0569
 11923 C210         8.7610   -27.6130   -10.4600 C.2      95  POP89      -0.0879
 11924 H101         8.8210   -27.5460    -9.3470 H        95  POP89       0.0569
 11925 C211         8.0680   -26.4820   -11.1340 C.3      95  POP89      -0.0348
 11926 H11R         7.0440   -26.3800   -10.8580 H        95  POP89       0.0307
 11927 H11S         7.9190   -26.6070   -12.2360 H        95  POP89       0.0307
 11928 C212         8.8360   -25.1380   -11.0130 C.3      95  POP89      -0.0496
 11929 H12R         9.8490   -25.2030   -11.4640 H        95  POP89       0.0268
 11930 H12S         9.0860   -24.8750    -9.9750 H        95  POP89       0.0268
 11931 C213         8.2140   -23.9960   -11.8230 C.3      95  POP89      -0.0528
 11932 H13R         7.1950   -23.6840   -11.4230 H        95  POP89       0.0265
 11933 H13S         8.0360   -24.3380   -12.8080 H        95  POP89       0.0265
 11934 C214         9.0850   -22.7330   -11.7950 C.3      95  POP89      -0.0530
 11935 H14R         8.4330   -22.0060   -12.3820 H        95  POP89       0.0265
 11936 H14S         9.9830   -22.9720   -12.3880 H        95  POP89       0.0265
 11937 C215         9.4670   -22.1460   -10.4220 C.3      95  POP89      -0.0531
 11938 H15R         9.9070   -23.0160    -9.8090 H        95  POP89       0.0265
 11939 H15S         8.5670   -21.8850    -9.8670 H        95  POP89       0.0265
 11940 C216        10.4460   -20.9840   -10.5300 C.3      95  POP89      -0.0533
 11941 H16R         9.7770   -20.1110   -10.9330 H        95  POP89       0.0265
 11942 H16S        11.2220   -21.0110   -11.2150 H        95  POP89       0.0265
 11943 C217        10.8940   -20.4060    -9.1620 C.3      95  POP89      -0.0559
 11944 H17R        11.5160   -21.1390    -8.5310 H        95  POP89       0.0263
 11945 H17S         9.9870   -20.0810    -8.6350 H        95  POP89       0.0263
 11946 C218        11.7560   -19.1600    -9.2760 C.3      95  POP89      -0.0653
 11947 H18R        12.6340   -19.3140    -9.8960 H        95  POP89       0.0230
 11948 H18S        11.9300   -18.8160    -8.2630 H        95  POP89       0.0230
 11949 H18T        11.1810   -18.3820    -9.8620 H        95  POP89       0.0230
 11950 C33         18.1980   -32.4540   -15.0910 C.3      95  POP89      -0.0441
 11951 H3X         19.1140   -31.9680   -15.4960 H        95  POP89       0.0270
 11952 H3Y         18.4860   -33.4660   -15.2290 H        95  POP89       0.0270
 11953 C34         18.2300   -32.2130   -13.6240 C.3      95  POP89      -0.0526
 11954 H4X         17.5510   -32.8720   -13.0920 H        95  POP89       0.0265
 11955 H4Y         17.6870   -31.2860   -13.3230 H        95  POP89       0.0265
 11956 C35         19.5850   -32.1880   -12.8950 C.3      95  POP89      -0.0530
 11957 H5X         20.0660   -31.2260   -13.1830 H        95  POP89       0.0265
 11958 H5Y         20.1360   -33.0710   -13.3970 H        95  POP89       0.0265
 11959 C36         19.5330   -32.3960   -11.4050 C.3      95  POP89      -0.0531
 11960 H6X         20.6350   -32.3830   -11.0980 H        95  POP89       0.0265
 11961 H6Y         19.2090   -33.4510   -11.1300 H        95  POP89       0.0265
 11962 C37         18.7600   -31.4440   -10.6140 C.3      95  POP89      -0.0531
 11963 H7X         17.7100   -31.4070   -11.0530 H        95  POP89       0.0265
 11964 H7Y         19.1090   -30.4420   -10.6360 H        95  POP89       0.0265
 11965 C38         18.6020   -31.8740    -9.1310 C.3      95  POP89      -0.0531
 11966 H8X         19.6240   -32.2720    -8.8530 H        95  POP89       0.0265
 11967 H8Y         17.8220   -32.6560    -8.9910 H        95  POP89       0.0265
 11968 C39         18.3900   -30.7760    -8.0390 C.3      95  POP89      -0.0531
 11969 H9X         17.5820   -30.0630    -8.3630 H        95  POP89       0.0265
 11970 H9Y         19.2690   -30.1430    -7.8900 H        95  POP89       0.0265
 11971 C310        18.0710   -31.2700    -6.5940 C.3      95  POP89      -0.0531
 11972 H10X        18.8610   -32.0480    -6.1680 H        95  POP89       0.0265
 11973 H10Y        17.1040   -31.8140    -6.6920 H        95  POP89       0.0265
 11974 C311        17.9150   -30.0770    -5.5710 C.3      95  POP89      -0.0531
 11975 H11X        17.2710   -29.3670    -6.2490 H        95  POP89       0.0265
 11976 H11Y        18.8390   -29.6630    -5.2770 H        95  POP89       0.0265
 11977 C312        17.1100   -30.3880    -4.4110 C.3      95  POP89      -0.0531
 11978 H12X        17.6910   -31.1660    -3.8210 H        95  POP89       0.0265
 11979 H12Y        16.1500   -30.7630    -4.6840 H        95  POP89       0.0265
 11980 C313        16.9090   -29.1720    -3.5560 C.3      95  POP89      -0.0531
 11981 H13X        16.3250   -29.6250    -2.7340 H        95  POP89       0.0265
 11982 H13Y        16.3350   -28.3700    -4.1000 H        95  POP89       0.0265
 11983 C314        18.0960   -28.5700    -2.8860 C.3      95  POP89      -0.0533
 11984 H14X        17.7800   -27.7290    -2.2020 H        95  POP89       0.0265
 11985 H14Y        18.7870   -28.0950    -3.5950 H        95  POP89       0.0265
 11986 C315        18.9360   -29.4890    -1.9810 C.3      95  POP89      -0.0559
 11987 H15X        19.1360   -30.3310    -2.5980 H        95  POP89       0.0263
 11988 H15Y        18.3810   -29.8070    -1.0940 H        95  POP89       0.0263
 11989 C316        20.2120   -28.8450    -1.5000 C.3      95  POP89      -0.0653
 11990 H16X        20.8290   -28.4670    -2.2750 H        95  POP89       0.0230
 11991 H16Y        20.8380   -29.5870    -1.0350 H        95  POP89       0.0230
 11992 H16Z        19.9750   -28.0570    -0.7140 H        95  POP89       0.0230
 11993 N            9.7980     1.1540   -20.1780 N.3      96  POP90       0.2385
 11994 C12         10.6500     0.8760   -18.9340 C.3      96  POP90      -0.0064
 11995 H12A        11.0860    -0.0850   -18.9780 H        96  POP90       0.0838
 11996 H12B        10.0390     0.8550   -18.0420 H        96  POP90       0.0838
 11997 C13         10.5370     0.9940   -21.4780 C.3      96  POP90      -0.0417
 11998 H13A        10.9340     0.0200   -21.6160 H        96  POP90       0.0778
 11999 H13B         9.8810     1.1710   -22.3790 H        96  POP90       0.0778
 12000 H13C        11.4230     1.5680   -21.6390 H        96  POP90       0.0778
 12001 C14          8.7370     0.1120   -20.3010 C.3      96  POP90      -0.0417
 12002 H14A         8.0090     0.1810   -19.4540 H        96  POP90       0.0778
 12003 H14B         8.1230     0.2700   -21.1750 H        96  POP90       0.0778
 12004 H14C         9.2980    -0.8010   -20.3060 H        96  POP90       0.0778
 12005 C15          9.2260     2.5290   -20.1890 C.3      96  POP90      -0.0417
 12006 H15A         8.6410     2.6160   -19.3040 H        96  POP90       0.0778
 12007 H15B         8.5930     2.7960   -21.0730 H        96  POP90       0.0778
 12008 H15C         9.9730     3.3200   -19.9900 H        96  POP90       0.0778
 12009 C11         11.8620     1.7740   -18.8080 C.3      96  POP90       0.0954
 12010 H11A        12.3850     1.7950   -19.7610 H        96  POP90       0.0618
 12011 H11B        12.4640     1.2020   -18.0860 H        96  POP90       0.0618
 12012 P           10.7490     3.2080   -17.0160 P.3      96  POP90       0.2645
 12013 O13         10.6480     1.9530   -16.1900 O.co2    96  POP90      -0.5105
 12014 O14          9.4800     3.9390   -17.2450 O.co2    96  POP90      -0.5105
 12015 O12         11.5190     3.0960   -18.4110 O.3      96  POP90      -0.3154
 12016 O11         11.7610     4.1830   -16.2650 O.3      96  POP90      -0.3181
 12017 C1          12.6240     5.0650   -16.9680 C.3      96  POP90       0.0845
 12018 HA          12.2500     5.5970   -17.9280 H        96  POP90       0.0591
 12019 HB          13.5290     4.4050   -17.1930 H        96  POP90       0.0591
 12020 C2          13.0980     6.1850   -16.0030 C.3      96  POP90       0.1155
 12021 HS          13.8450     6.6520   -16.6630 H        96  POP90       0.0649
 12022 O21         13.6520     5.6250   -14.7660 O.3      96  POP90      -0.3072
 12023 C21         14.8540     5.0480   -14.8730 C.2      96  POP90       0.2626
 12024 O22         15.4730     4.9150   -15.9420 O.2      96  POP90      -0.2650
 12025 C22         15.4810     4.5560   -13.5520 C.3      96  POP90       0.0332
 12026 H2R         16.5570     4.7690   -13.4780 H        96  POP90       0.0366
 12027 H2S         15.1840     3.4940   -13.5240 H        96  POP90       0.0366
 12028 C3          11.8450     7.0850   -15.6370 C.3      96  POP90       0.0860
 12029 HX          11.1420     6.3550   -15.1920 H        96  POP90       0.0593
 12030 HY          11.3780     7.4320   -16.5840 H        96  POP90       0.0593
 12031 O31         12.2740     8.1790   -14.7750 O.3      96  POP90      -0.3125
 12032 C31         12.2890     7.9360   -13.4830 C.2      96  POP90       0.2622
 12033 O32         11.8330     6.9410   -12.9480 O.2      96  POP90      -0.2650
 12034 C32         12.8850     9.1430   -12.6800 C.3      96  POP90       0.0332
 12035 H2X         12.7310    10.1000   -13.2830 H        96  POP90       0.0366
 12036 H2Y         13.9850     8.9020   -12.6120 H        96  POP90       0.0366
 12037 C23         14.9010     5.1690   -12.2600 C.3      96  POP90      -0.0441
 12038 H3R         13.9390     5.7290   -12.4160 H        96  POP90       0.0270
 12039 H3S         15.7150     5.8780   -11.9280 H        96  POP90       0.0270
 12040 C24         14.6200     4.1410   -11.1320 C.3      96  POP90      -0.0526
 12041 H4R         15.3170     3.2630   -11.3370 H        96  POP90       0.0265
 12042 H4S         13.5570     3.7520   -11.2970 H        96  POP90       0.0265
 12043 C25         14.8040     4.6340    -9.6630 C.3      96  POP90      -0.0530
 12044 H5R         15.8980     4.6860    -9.4640 H        96  POP90       0.0265
 12045 H5S         14.3680     3.7920    -9.0030 H        96  POP90       0.0265
 12046 C26         14.1330     5.9000    -9.2320 C.3      96  POP90      -0.0528
 12047 H6R         13.0810     5.8610    -9.4590 H        96  POP90       0.0265
 12048 H6S         14.6330     6.7650    -9.7160 H        96  POP90       0.0265
 12049 C27         14.2820     6.1880    -7.7280 C.3      96  POP90      -0.0496
 12050 H7R         15.3250     6.5380    -7.5590 H        96  POP90       0.0268
 12051 H7S         14.2560     5.2850    -7.1190 H        96  POP90       0.0268
 12052 C28         13.2840     7.2870    -7.3020 C.3      96  POP90      -0.0348
 12053 H8R         13.4550     8.2550    -7.7520 H        96  POP90       0.0307
 12054 H8S         13.5700     7.4970    -6.1830 H        96  POP90       0.0307
 12055 C29         11.8860     6.9470    -7.4440 C.2      96  POP90      -0.0879
 12056 H91         11.5670     6.6800    -8.4750 H        96  POP90       0.0569
 12057 C210        10.9990     6.8190    -6.4990 C.2      96  POP90      -0.0879
 12058 H101         9.9570     6.5830    -6.7360 H        96  POP90       0.0569
 12059 C211        11.0680     7.2690    -5.0090 C.3      96  POP90      -0.0348
 12060 H11R        11.9700     7.8350    -4.8040 H        96  POP90       0.0307
 12061 H11S        11.1410     6.2830    -4.4900 H        96  POP90       0.0307
 12062 C212         9.8640     8.0750    -4.6650 C.3      96  POP90      -0.0496
 12063 H12R         8.9750     7.3750    -4.6320 H        96  POP90       0.0268
 12064 H12S         9.7000     8.9050    -5.4110 H        96  POP90       0.0268
 12065 C213         9.9920     8.8390    -3.3390 C.3      96  POP90      -0.0528
 12066 H13R         8.9390     9.3150    -3.1510 H        96  POP90       0.0265
 12067 H13S        10.7870     9.5900    -3.5170 H        96  POP90       0.0265
 12068 C214        10.2700     7.8730    -2.1870 C.3      96  POP90      -0.0530
 12069 H14R        11.4540     7.8170    -2.3110 H        96  POP90       0.0265
 12070 H14S         9.9790     6.8080    -2.3590 H        96  POP90       0.0265
 12071 C215         9.8860     8.4400    -0.8790 C.3      96  POP90      -0.0531
 12072 H15R        10.2450     7.6610    -0.1600 H        96  POP90       0.0265
 12073 H15S         8.7990     8.4240    -0.8020 H        96  POP90       0.0265
 12074 C216        10.4370     9.8190    -0.4750 C.3      96  POP90      -0.0533
 12075 H16R        10.1570    10.6130    -1.3220 H        96  POP90       0.0265
 12076 H16S        11.5420     9.9010    -0.4370 H        96  POP90       0.0265
 12077 C217         9.9100    10.4860     0.8640 C.3      96  POP90      -0.0559
 12078 H17R         8.8400    10.2220     0.9450 H        96  POP90       0.0263
 12079 H17S         9.9320    11.5350     0.7960 H        96  POP90       0.0263
 12080 C218        10.6160     9.9040     2.0470 C.3      96  POP90      -0.0653
 12081 H18R        10.2750     8.8520     2.1970 H        96  POP90       0.0230
 12082 H18S        10.2670    10.5190     2.9260 H        96  POP90       0.0230
 12083 H18T        11.6550     9.9410     1.7180 H        96  POP90       0.0230
 12084 C33         12.4240     9.3860   -11.2240 C.3      96  POP90      -0.0441
 12085 H3X         13.2840     9.6380   -10.6520 H        96  POP90       0.0270
 12086 H3Y         11.8280     8.5650   -10.8320 H        96  POP90       0.0270
 12087 C34         11.6220    10.7430   -11.1520 C.3      96  POP90      -0.0526
 12088 H4X         10.8880    10.7500   -11.9660 H        96  POP90       0.0265
 12089 H4Y         12.3810    11.6450   -11.2910 H        96  POP90       0.0265
 12090 C35         10.7980    10.8950    -9.8570 C.3      96  POP90      -0.0530
 12091 H5X         10.4760     9.9340    -9.4990 H        96  POP90       0.0265
 12092 H5Y          9.9250    11.5380   -10.0620 H        96  POP90       0.0265
 12093 C36         11.7450    11.5550    -8.7900 C.3      96  POP90      -0.0531
 12094 H6X         12.1370    12.6010    -9.0500 H        96  POP90       0.0265
 12095 H6Y         12.5010    10.7580    -8.4860 H        96  POP90       0.0265
 12096 C37         11.0900    11.8210    -7.4370 C.3      96  POP90      -0.0531
 12097 H7X         10.7670    10.8560    -6.9690 H        96  POP90       0.0265
 12098 H7Y         10.1280    12.3930    -7.6410 H        96  POP90       0.0265
 12099 C38         11.9720    12.6960    -6.5760 C.3      96  POP90      -0.0531
 12100 H8X         12.1530    13.6100    -7.1790 H        96  POP90       0.0265
 12101 H8Y         12.9570    12.2790    -6.4690 H        96  POP90       0.0265
 12102 C39         11.3560    12.9130    -5.1340 C.3      96  POP90      -0.0531
 12103 H9X         11.3130    11.9460    -4.5650 H        96  POP90       0.0265
 12104 H9Y         10.3630    13.2520    -5.2000 H        96  POP90       0.0265
 12105 C310        12.1810    13.9090    -4.4140 C.3      96  POP90      -0.0531
 12106 H10X        11.9730    14.9030    -4.7860 H        96  POP90       0.0265
 12107 H10Y        13.3220    13.6960    -4.5950 H        96  POP90       0.0265
 12108 C311        11.9480    13.9340    -2.9590 C.3      96  POP90      -0.0531
 12109 H11X        12.0160    12.9270    -2.5780 H        96  POP90       0.0265
 12110 H11Y        10.9020    14.3240    -2.7420 H        96  POP90       0.0265
 12111 C312        13.0560    14.7900    -2.2990 C.3      96  POP90      -0.0531
 12112 H12X        13.0130    15.7280    -2.8700 H        96  POP90       0.0265
 12113 H12Y        14.0760    14.3070    -2.4180 H        96  POP90       0.0265
 12114 C313        12.7740    15.1520    -0.8720 C.3      96  POP90      -0.0531
 12115 H13X        12.0090    15.9850    -0.7360 H        96  POP90       0.0265
 12116 H13Y        13.7280    15.6620    -0.5570 H        96  POP90       0.0265
 12117 C314        12.4950    13.8860    -0.1060 C.3      96  POP90      -0.0533
 12118 H14X        13.3190    13.1890    -0.4020 H        96  POP90       0.0265
 12119 H14Y        11.5110    13.5120    -0.4180 H        96  POP90       0.0265
 12120 C315        12.5320    14.0280     1.4190 C.3      96  POP90      -0.0559
 12121 H15X        13.5730    14.2150     1.7180 H        96  POP90       0.0263
 12122 H15Y        12.2330    13.0420     1.9070 H        96  POP90       0.0263
 12123 C316        11.5540    15.0750     1.9810 C.3      96  POP90      -0.0653
 12124 H16X        11.8620    16.0660     1.6480 H        96  POP90       0.0230
 12125 H16Y        11.5990    15.1570     3.0300 H        96  POP90       0.0230
 12126 H16Z        10.4890    14.8700     1.7060 H        96  POP90       0.0230
 12127 N           15.1890    19.8410   -24.0750 N.3      97  POP91       0.2385
 12128 C12         15.4700    20.9650   -23.0820 C.3      97  POP91      -0.0064
 12129 H12A        15.6310    20.5580   -22.0410 H        97  POP91       0.0838
 12130 H12B        14.6200    21.5440   -22.8740 H        97  POP91       0.0838
 12131 C13         16.3610    18.8780   -24.0960 C.3      97  POP91      -0.0417
 12132 H13A        16.4200    18.3550   -23.1740 H        97  POP91       0.0778
 12133 H13B        16.2490    18.1690   -24.9460 H        97  POP91       0.0778
 12134 H13C        17.3000    19.5240   -24.1610 H        97  POP91       0.0778
 12135 C14         13.9200    19.1340   -23.8000 C.3      97  POP91      -0.0417
 12136 H14A        13.9800    18.6090   -22.8750 H        97  POP91       0.0778
 12137 H14B        13.0360    19.7320   -23.6740 H        97  POP91       0.0778
 12138 H14C        13.7540    18.3500   -24.5180 H        97  POP91       0.0778
 12139 C15         15.0640    20.4070   -25.4320 C.3      97  POP91      -0.0417
 12140 H15A        14.8290    19.6090   -26.1050 H        97  POP91       0.0778
 12141 H15B        15.9540    20.8770   -25.7370 H        97  POP91       0.0778
 12142 H15C        14.2580    21.1080   -25.4830 H        97  POP91       0.0778
 12143 C11         16.5450    22.0260   -23.3740 C.3      97  POP91       0.0954
 12144 H11A        16.2870    22.6400   -24.3040 H        97  POP91       0.0618
 12145 H11B        17.5580    21.6180   -23.6340 H        97  POP91       0.0618
 12146 P           17.9380    22.8370   -21.3030 P.3      97  POP91       0.2645
 12147 O13         19.0420    23.5610   -21.8920 O.co2    97  POP91      -0.5105
 12148 O14         18.2120    21.4530   -20.9260 O.co2    97  POP91      -0.5105
 12149 O12         16.7170    22.8990   -22.2610 O.3      97  POP91      -0.3154
 12150 O11         17.4530    23.6740   -20.0280 O.3      97  POP91      -0.3181
 12151 C1          16.2380    23.3020   -19.3120 C.3      97  POP91       0.0845
 12152 HA          15.8830    22.3000   -19.6190 H        97  POP91       0.0591
 12153 HB          15.3370    23.9510   -19.4580 H        97  POP91       0.0591
 12154 C2          16.4660    23.3040   -17.7400 C.3      97  POP91       0.1155
 12155 HS          15.4760    23.1290   -17.2600 H        97  POP91       0.0649
 12156 O21         17.0710    24.5630   -17.4620 O.3      97  POP91      -0.3072
 12157 C21         16.7820    25.0230   -16.2710 C.2      97  POP91       0.2626
 12158 O22         15.8510    24.6730   -15.6190 O.2      97  POP91      -0.2650
 12159 C22         17.5730    26.3700   -16.0790 C.3      97  POP91       0.0332
 12160 H2R         17.3370    27.0060   -16.9150 H        97  POP91       0.0366
 12161 H2S         18.6190    26.0560   -16.1330 H        97  POP91       0.0366
 12162 C3          17.3920    22.1180   -17.3760 C.3      97  POP91       0.0860
 12163 HX          18.4640    22.4120   -17.6110 H        97  POP91       0.0593
 12164 HY          17.1070    21.2940   -18.0020 H        97  POP91       0.0593
 12165 O31         17.3940    21.7930   -15.9400 O.3      97  POP91      -0.3125
 12166 C31         16.2820    21.2230   -15.5760 C.2      97  POP91       0.2622
 12167 O32         15.4330    20.8650   -16.3590 O.2      97  POP91      -0.2650
 12168 C32         16.1580    21.0560   -14.0130 C.3      97  POP91       0.0332
 12169 H2X         17.1940    20.8960   -13.7860 H        97  POP91       0.0366
 12170 H2Y         15.6020    20.1210   -13.9220 H        97  POP91       0.0366
 12171 C23         17.5310    27.1630   -14.7350 C.3      97  POP91      -0.0441
 12172 H3R         17.5750    26.5360   -13.8300 H        97  POP91       0.0270
 12173 H3S         16.5450    27.6360   -14.7920 H        97  POP91       0.0270
 12174 C24         18.7070    28.1090   -14.6150 C.3      97  POP91      -0.0526
 12175 H4R         18.6830    28.7150   -15.5320 H        97  POP91       0.0265
 12176 H4S         19.6030    27.5050   -14.7220 H        97  POP91       0.0265
 12177 C25         18.6800    29.0390   -13.3840 C.3      97  POP91      -0.0530
 12178 H5R         17.7510    29.7250   -13.2800 H        97  POP91       0.0265
 12179 H5S         19.5250    29.7090   -13.5780 H        97  POP91       0.0265
 12180 C26         18.9230    28.3420   -12.0580 C.3      97  POP91      -0.0528
 12181 H6R         19.6710    27.5210   -12.2140 H        97  POP91       0.0265
 12182 H6S         18.0620    27.8980   -11.5200 H        97  POP91       0.0265
 12183 C27         19.5910    29.2330   -10.9790 C.3      97  POP91      -0.0496
 12184 H7R         20.4090    29.8390   -11.4700 H        97  POP91       0.0268
 12185 H7S         20.1120    28.5820   -10.2580 H        97  POP91       0.0268
 12186 C28         18.5560    30.3280   -10.3530 C.3      97  POP91      -0.0348
 12187 H8R         17.7060    29.6310   -10.0030 H        97  POP91       0.0307
 12188 H8S         18.1320    31.0930   -11.0630 H        97  POP91       0.0307
 12189 C29         19.3060    30.9050    -9.2550 C.2      97  POP91      -0.0879
 12190 H91         20.1420    31.5430    -9.6300 H        97  POP91       0.0569
 12191 C210        19.1580    30.7600    -7.8830 C.2      97  POP91      -0.0879
 12192 H101        19.9150    31.2240    -7.2140 H        97  POP91       0.0569
 12193 C211        18.1380    29.8620    -7.2430 C.3      97  POP91      -0.0348
 12194 H11R        18.6340    29.0630    -6.7280 H        97  POP91       0.0307
 12195 H11S        17.5970    29.2610    -8.0020 H        97  POP91       0.0307
 12196 C212        17.0780    30.4450    -6.2640 C.3      97  POP91      -0.0496
 12197 H12R        16.3490    29.6440    -6.0220 H        97  POP91       0.0268
 12198 H12S        16.5410    31.2180    -6.8110 H        97  POP91       0.0268
 12199 C213        17.5350    30.9900    -4.8890 C.3      97  POP91      -0.0528
 12200 H13R        16.7630    31.4200    -4.2410 H        97  POP91       0.0265
 12201 H13S        18.2770    31.7890    -5.0570 H        97  POP91       0.0265
 12202 C214        18.2050    30.0030    -3.9310 C.3      97  POP91      -0.0530
 12203 H14R        19.2020    29.7740    -4.3970 H        97  POP91       0.0265
 12204 H14S        17.6280    29.0170    -3.8710 H        97  POP91       0.0265
 12205 C215        18.5170    30.5550    -2.4860 C.3      97  POP91      -0.0531
 12206 H15R        19.1210    29.7630    -2.0410 H        97  POP91       0.0265
 12207 H15S        17.5820    30.7470    -1.8820 H        97  POP91       0.0265
 12208 C216        19.3790    31.8470    -2.4830 C.3      97  POP91      -0.0533
 12209 H16R        18.8570    32.5970    -2.9760 H        97  POP91       0.0265
 12210 H16S        20.3700    31.6700    -2.9520 H        97  POP91       0.0265
 12211 C217        19.6270    32.4020    -1.0970 C.3      97  POP91      -0.0559
 12212 H17R        19.9070    31.5320    -0.4830 H        97  POP91       0.0263
 12213 H17S        18.7200    32.8930    -0.6880 H        97  POP91       0.0263
 12214 C218        20.6860    33.5190    -1.0350 C.3      97  POP91      -0.0653
 12215 H18R        20.6250    33.9760    -0.0210 H        97  POP91       0.0230
 12216 H18S        20.4350    34.2120    -1.7980 H        97  POP91       0.0230
 12217 H18T        21.6490    33.1180    -1.2370 H        97  POP91       0.0230
 12218 C33         15.6020    22.2970   -13.1510 C.3      97  POP91      -0.0441
 12219 H3X         14.7160    22.6450   -13.8090 H        97  POP91       0.0270
 12220 H3Y         16.2890    23.0990   -13.2210 H        97  POP91       0.0270
 12221 C34         15.1280    21.9690   -11.7410 C.3      97  POP91      -0.0526
 12222 H4X         15.1000    22.9010   -11.1450 H        97  POP91       0.0265
 12223 H4Y         15.8910    21.3420   -11.2780 H        97  POP91       0.0265
 12224 C35         13.7190    21.2870   -11.6970 C.3      97  POP91      -0.0530
 12225 H5X         13.4410    20.8750   -12.6680 H        97  POP91       0.0265
 12226 H5Y         12.8490    21.9650   -11.4740 H        97  POP91       0.0265
 12227 C36         13.7050    20.0310   -10.8800 C.3      97  POP91      -0.0531
 12228 H6X         14.3070    19.2450   -11.2640 H        97  POP91       0.0265
 12229 H6Y         12.6860    19.5980   -10.8910 H        97  POP91       0.0265
 12230 C37         14.0750    20.2270    -9.3830 C.3      97  POP91      -0.0531
 12231 H7X         15.0740    20.7490    -9.3230 H        97  POP91       0.0265
 12232 H7Y         14.2840    19.3190    -8.7960 H        97  POP91       0.0265
 12233 C38         12.9490    21.0560    -8.6230 C.3      97  POP91      -0.0531
 12234 H8X         11.8990    20.8190    -8.8840 H        97  POP91       0.0265
 12235 H8Y         13.1800    22.1080    -8.9980 H        97  POP91       0.0265
 12236 C39         13.0800    21.0320    -7.1150 C.3      97  POP91      -0.0531
 12237 H9X         12.5200    21.9140    -6.7480 H        97  POP91       0.0265
 12238 H9Y         14.1110    21.2010    -6.7510 H        97  POP91       0.0265
 12239 C310        12.4830    19.7210    -6.5230 C.3      97  POP91      -0.0531
 12240 H10X        13.1030    18.8330    -6.8280 H        97  POP91       0.0265
 12241 H10Y        11.4280    19.5590    -6.8850 H        97  POP91       0.0265
 12242 C311        12.4040    19.6240    -5.0080 C.3      97  POP91      -0.0531
 12243 H11X        13.3590    19.7220    -4.4810 H        97  POP91       0.0265
 12244 H11Y        11.9240    18.5690    -4.7290 H        97  POP91       0.0265
 12245 C312        11.4270    20.6470    -4.3730 C.3      97  POP91      -0.0531
 12246 H12X        10.3980    20.3610    -4.4890 H        97  POP91       0.0265
 12247 H12Y        11.5890    21.6550    -4.8740 H        97  POP91       0.0265
 12248 C313        11.5450    20.8490    -2.8720 C.3      97  POP91      -0.0531
 12249 H13X        10.8150    21.6760    -2.5970 H        97  POP91       0.0265
 12250 H13Y        12.6050    21.1260    -2.6570 H        97  POP91       0.0265
 12251 C314        11.0980    19.5970    -2.1300 C.3      97  POP91      -0.0533
 12252 H14X        11.8800    18.8700    -2.3380 H        97  POP91       0.0265
 12253 H14Y        10.1900    19.1550    -2.5160 H        97  POP91       0.0265
 12254 C315        11.0110    19.9400    -0.6090 C.3      97  POP91      -0.0559
 12255 H15X        10.3920    20.7850    -0.4670 H        97  POP91       0.0263
 12256 H15Y        11.9900    20.1720    -0.3060 H        97  POP91       0.0263
 12257 C316        10.5810    18.7200     0.2080 C.3      97  POP91      -0.0653
 12258 H16X         9.4840    18.5890    -0.0840 H        97  POP91       0.0230
 12259 H16Y        10.5680    18.9380     1.2710 H        97  POP91       0.0230
 12260 H16Z        11.1950    17.8440    -0.0880 H        97  POP91       0.0230
 12261 N          -17.7480    24.6750   -22.4470 N.3      98  POP92       0.2385
 12262 C12        -17.5090    23.4280   -21.6990 C.3      98  POP92      -0.0064
 12263 H12A       -16.9290    22.7080   -22.3390 H        98  POP92       0.0838
 12264 H12B       -18.4860    23.0090   -21.4810 H        98  POP92       0.0838
 12265 C13        -18.2400    25.8430   -21.5930 C.3      98  POP92      -0.0417
 12266 H13A       -19.2180    25.6940   -21.0670 H        98  POP92       0.0778
 12267 H13B       -17.5600    26.0980   -20.8020 H        98  POP92       0.0778
 12268 H13C       -18.3630    26.7200   -22.2430 H        98  POP92       0.0778
 12269 C14        -16.5220    25.1040   -23.1070 C.3      98  POP92      -0.0417
 12270 H14A       -16.1370    24.2630   -23.6540 H        98  POP92       0.0778
 12271 H14B       -16.6960    25.9010   -23.7520 H        98  POP92       0.0778
 12272 H14C       -15.8310    25.3260   -22.3610 H        98  POP92       0.0778
 12273 C15        -18.8020    24.4960   -23.5540 C.3      98  POP92      -0.0417
 12274 H15A       -18.6550    25.0090   -24.4340 H        98  POP92       0.0778
 12275 H15B       -19.8200    24.5880   -23.2140 H        98  POP92       0.0778
 12276 H15C       -18.9500    23.4190   -23.8440 H        98  POP92       0.0778
 12277 C11        -16.7720    23.5500   -20.3920 C.3      98  POP92       0.0954
 12278 H11A       -16.8950    22.6550   -19.7360 H        98  POP92       0.0618
 12279 H11B       -17.2480    24.3730   -19.8470 H        98  POP92       0.0618
 12280 P          -14.2850    22.9290   -21.0330 P.3      98  POP92       0.2645
 12281 O13        -13.3150    23.6810   -21.8640 O.co2    98  POP92      -0.5105
 12282 O14        -14.8650    21.6940   -21.4640 O.co2    98  POP92      -0.5105
 12283 O12        -15.4570    23.9770   -20.6930 O.3      98  POP92      -0.3154
 12284 O11        -13.6250    22.5500   -19.6220 O.3      98  POP92      -0.3181
 12285 C1         -14.0000    23.1150   -18.4120 C.3      98  POP92       0.0845
 12286 HA         -14.3630    22.2980   -17.7060 H        98  POP92       0.0591
 12287 HB         -14.8160    23.8570   -18.4760 H        98  POP92       0.0591
 12288 C2         -12.8800    23.9610   -17.6520 C.3      98  POP92       0.1155
 12289 HS         -12.4600    24.7350   -18.4370 H        98  POP92       0.0649
 12290 O21        -11.7240    23.0330   -17.3780 O.3      98  POP92      -0.3072
 12291 C21        -10.5280    23.5330   -17.2270 C.2      98  POP92       0.2626
 12292 O22        -10.1740    24.6630   -17.3080 O.2      98  POP92      -0.2650
 12293 C22         -9.5100    22.4260   -16.8980 C.3      98  POP92       0.0332
 12294 H2R         -8.8010    22.2850   -17.7150 H        98  POP92       0.0366
 12295 H2S        -10.0870    21.4920   -16.7970 H        98  POP92       0.0366
 12296 C3         -13.4830    24.5280   -16.3860 C.3      98  POP92       0.0860
 12297 HX         -13.8210    23.6120   -15.7630 H        98  POP92       0.0593
 12298 HY         -14.3610    25.1660   -16.6070 H        98  POP92       0.0593
 12299 O31        -12.4590    25.2400   -15.5990 O.3      98  POP92      -0.3125
 12300 C31        -12.2970    26.5230   -15.9780 C.2      98  POP92       0.2622
 12301 O32        -12.9210    27.0430   -16.8970 O.2      98  POP92      -0.2650
 12302 C32        -11.0310    27.1110   -15.2120 C.3      98  POP92       0.0332
 12303 H2X        -10.6510    27.9110   -15.9530 H        98  POP92       0.0366
 12304 H2Y        -10.3150    26.3360   -15.1580 H        98  POP92       0.0366
 12305 C23         -8.7550    22.7430   -15.5990 C.3      98  POP92      -0.0441
 12306 H3R         -8.0840    23.6220   -15.7570 H        98  POP92       0.0270
 12307 H3S         -8.2250    21.8350   -15.3120 H        98  POP92       0.0270
 12308 C24         -9.5460    22.9140   -14.2450 C.3      98  POP92      -0.0526
 12309 H4R        -10.1680    22.0470   -13.9430 H        98  POP92       0.0265
 12310 H4S        -10.3210    23.7930   -14.3760 H        98  POP92       0.0265
 12311 C25         -8.5350    23.1430   -13.1430 C.3      98  POP92      -0.0530
 12312 H5R         -7.8010    23.9870   -13.2810 H        98  POP92       0.0265
 12313 H5S         -7.8250    22.2830   -13.0830 H        98  POP92       0.0265
 12314 C26         -9.2580    23.4350   -11.8580 C.3      98  POP92      -0.0528
 12315 H6R        -10.0760    22.6410   -11.7390 H        98  POP92       0.0265
 12316 H6S         -9.7050    24.3970   -11.8940 H        98  POP92       0.0265
 12317 C27         -8.3320    23.2240   -10.5920 C.3      98  POP92      -0.0496
 12318 H7R         -7.7340    22.3470   -10.8430 H        98  POP92       0.0268
 12319 H7S         -8.9750    23.1050    -9.7360 H        98  POP92       0.0268
 12320 C28         -7.2230    24.3410   -10.3910 C.3      98  POP92      -0.0348
 12321 H8R         -6.6260    24.2140   -11.2730 H        98  POP92       0.0307
 12322 H8S         -6.7660    24.0050    -9.4610 H        98  POP92       0.0307
 12323 C29         -7.5920    25.8230   -10.5600 C.2      98  POP92      -0.0879
 12324 H91         -8.3010    26.0660   -11.3820 H        98  POP92       0.0569
 12325 C210        -7.2670    26.8080    -9.7740 C.2      98  POP92      -0.0879
 12326 H101        -7.5040    27.8330   -10.1050 H        98  POP92       0.0569
 12327 C211        -6.4390    26.6050    -8.5260 C.3      98  POP92      -0.0348
 12328 H11R        -5.5580    27.2500    -8.7150 H        98  POP92       0.0307
 12329 H11S        -6.0460    25.5490    -8.3970 H        98  POP92       0.0307
 12330 C212        -7.2190    26.8860    -7.2060 C.3      98  POP92      -0.0496
 12331 H12R        -7.9240    26.0670    -7.1860 H        98  POP92       0.0268
 12332 H12S        -7.8690    27.7810    -7.2410 H        98  POP92       0.0268
 12333 C213        -6.4740    26.9410    -5.8840 C.3      98  POP92      -0.0528
 12334 H13R        -5.9560    26.0060    -5.6740 H        98  POP92       0.0265
 12335 H13S        -7.2420    27.1040    -5.1440 H        98  POP92       0.0265
 12336 C214        -5.5330    28.1640    -5.9900 C.3      98  POP92      -0.0530
 12337 H14R        -6.0410    29.0100    -6.5300 H        98  POP92       0.0265
 12338 H14S        -4.7460    28.0070    -6.6850 H        98  POP92       0.0265
 12339 C215        -5.0330    28.5250    -4.5400 C.3      98  POP92      -0.0531
 12340 H15R        -4.4220    27.5770    -4.2300 H        98  POP92       0.0265
 12341 H15S        -5.9230    28.6610    -3.9300 H        98  POP92       0.0265
 12342 C216        -4.1990    29.8040    -4.3320 C.3      98  POP92      -0.0533
 12343 H16R        -4.6480    30.6320    -4.9580 H        98  POP92       0.0265
 12344 H16S        -3.1510    29.5960    -4.6490 H        98  POP92       0.0265
 12345 C217        -4.2080    30.2490    -2.8990 C.3      98  POP92      -0.0559
 12346 H17R        -3.9480    29.3020    -2.2870 H        98  POP92       0.0263
 12347 H17S        -5.1960    30.6050    -2.5470 H        98  POP92       0.0263
 12348 C218        -3.2510    31.3830    -2.5440 C.3      98  POP92      -0.0653
 12349 H18R        -2.8480    31.3190    -1.4500 H        98  POP92       0.0230
 12350 H18S        -3.6960    32.3890    -2.7410 H        98  POP92       0.0230
 12351 H18T        -2.3780    31.2620    -3.2680 H        98  POP92       0.0230
 12352 C33        -11.3850    27.7260   -13.8540 C.3      98  POP92      -0.0441
 12353 H3X        -12.4160    28.1650   -13.7460 H        98  POP92       0.0270
 12354 H3Y        -10.6980    28.5260   -13.6110 H        98  POP92       0.0270
 12355 C34        -11.2430    26.7460   -12.6740 C.3      98  POP92      -0.0526
 12356 H4X        -10.1660    26.2910   -12.6740 H        98  POP92       0.0265
 12357 H4Y        -12.0630    26.0280   -12.8020 H        98  POP92       0.0265
 12358 C35        -11.2700    27.4350   -11.3780 C.3      98  POP92      -0.0530
 12359 H5X        -12.1090    28.1590   -11.3580 H        98  POP92       0.0265
 12360 H5Y        -10.3470    28.0070   -11.1370 H        98  POP92       0.0265
 12361 C36        -11.4530    26.4470   -10.1990 C.3      98  POP92      -0.0531
 12362 H6X        -10.7040    25.6400   -10.2700 H        98  POP92       0.0265
 12363 H6Y        -12.4720    26.0270   -10.3630 H        98  POP92       0.0265
 12364 C37        -11.2470    27.1680    -8.8220 C.3      98  POP92      -0.0531
 12365 H7X        -11.9550    27.9690    -8.6120 H        98  POP92       0.0265
 12366 H7Y        -10.2440    27.4920    -8.8920 H        98  POP92       0.0265
 12367 C38        -11.4070    26.0210    -7.8700 C.3      98  POP92      -0.0531
 12368 H8X        -10.5590    25.2820    -7.9100 H        98  POP92       0.0265
 12369 H8Y        -12.2630    25.3820    -8.1010 H        98  POP92       0.0265
 12370 C39        -11.4430    26.4940    -6.4140 C.3      98  POP92      -0.0531
 12371 H9X        -12.2940    27.2780    -6.3540 H        98  POP92       0.0265
 12372 H9Y        -10.4490    26.9500    -6.1450 H        98  POP92       0.0265
 12373 C310       -11.6320    25.4040    -5.3370 C.3      98  POP92      -0.0531
 12374 H10X       -10.7060    24.8140    -5.1910 H        98  POP92       0.0265
 12375 H10Y       -12.2480    24.5870    -5.6220 H        98  POP92       0.0265
 12376 C311       -12.1190    25.9530    -3.9710 C.3      98  POP92      -0.0531
 12377 H11X       -13.0400    26.4780    -4.2070 H        98  POP92       0.0265
 12378 H11Y       -11.4510    26.7630    -3.5580 H        98  POP92       0.0265
 12379 C312       -12.1810    24.7800    -2.9510 C.3      98  POP92      -0.0531
 12380 H12X       -12.3560    25.2010    -1.8630 H        98  POP92       0.0265
 12381 H12Y       -11.2430    24.1620    -2.8940 H        98  POP92       0.0265
 12382 C313       -13.3460    23.7740    -3.1120 C.3      98  POP92      -0.0531
 12383 H13X       -13.5060    23.2670    -2.0740 H        98  POP92       0.0265
 12384 H13Y       -13.0300    22.9840    -3.8370 H        98  POP92       0.0265
 12385 C314       -14.6840    24.3140    -3.7260 C.3      98  POP92      -0.0533
 12386 H14X       -14.5610    24.8720    -4.7000 H        98  POP92       0.0265
 12387 H14Y       -15.0980    25.1690    -3.0400 H        98  POP92       0.0265
 12388 C315       -15.9320    23.4620    -3.8670 C.3      98  POP92      -0.0559
 12389 H15X       -15.7780    22.5000    -4.3550 H        98  POP92       0.0263
 12390 H15Y       -16.6450    23.9830    -4.6050 H        98  POP92       0.0263
 12391 C316       -16.6280    23.1960    -2.6040 C.3      98  POP92      -0.0653
 12392 H16X       -15.8930    22.5870    -1.9170 H        98  POP92       0.0230
 12393 H16Y       -17.5890    22.6850    -2.8760 H        98  POP92       0.0230
 12394 H16Z       -16.8020    24.1550    -2.1540 H        98  POP92       0.0230
 12395 N          -12.0690    32.5220   -22.4740 N.3      99  POP93       0.2385
 12396 C12        -12.9370    33.5420   -21.8730 C.3      99  POP93      -0.0064
 12397 H12A       -12.5620    34.5440   -21.9930 H        99  POP93       0.0838
 12398 H12B       -12.8180    33.4440   -20.7740 H        99  POP93       0.0838
 12399 C13        -10.6500    32.6290   -21.8240 C.3      99  POP93      -0.0417
 12400 H13A       -10.8300    32.6680   -20.7790 H        99  POP93       0.0778
 12401 H13B       -10.0320    31.7180   -22.1480 H        99  POP93       0.0778
 12402 H13C       -10.2440    33.5900   -22.1450 H        99  POP93       0.0778
 12403 C14        -12.4590    31.1060   -22.1120 C.3      99  POP93      -0.0417
 12404 H14A       -13.3540    30.7890   -22.7120 H        99  POP93       0.0778
 12405 H14B       -11.7300    30.4370   -22.5500 H        99  POP93       0.0778
 12406 H14C       -12.4550    30.8770   -21.0080 H        99  POP93       0.0778
 12407 C15        -11.9210    32.6850   -23.9080 C.3      99  POP93      -0.0417
 12408 H15A       -12.7470    32.2650   -24.4770 H        99  POP93       0.0778
 12409 H15B       -11.0540    32.0270   -24.2500 H        99  POP93       0.0778
 12410 H15C       -11.7810    33.6850   -24.2540 H        99  POP93       0.0778
 12411 C11        -14.3740    33.6640   -22.3690 C.3      99  POP93       0.0954
 12412 H11A       -15.1340    34.0090   -21.6160 H        99  POP93       0.0618
 12413 H11B       -14.6670    32.5270   -22.5010 H        99  POP93       0.0618
 12414 P          -14.0520    35.6490   -24.0470 P.3      99  POP93       0.2645
 12415 O13        -15.0890    36.5030   -24.6590 O.co2    99  POP93      -0.5105
 12416 O14        -12.8480    35.4850   -24.8500 O.co2    99  POP93      -0.5105
 12417 O12        -14.5520    34.2140   -23.6660 O.3      99  POP93      -0.3154
 12418 O11        -13.6210    36.1950   -22.5980 O.3      99  POP93      -0.3181
 12419 C1         -14.5390    36.9550   -21.7660 C.3      99  POP93       0.0845
 12420 HA         -14.9360    36.2510   -21.0020 H        99  POP93       0.0591
 12421 HB         -15.3490    37.4150   -22.3290 H        99  POP93       0.0591
 12422 C2         -13.8550    38.1610   -21.0440 C.3      99  POP93       0.1155
 12423 HS         -13.3660    38.7340   -21.8950 H        99  POP93       0.0649
 12424 O21        -12.8300    37.6740   -20.1140 O.3      99  POP93      -0.3072
 12425 C21        -11.9080    38.6210   -19.9040 C.2      99  POP93       0.2626
 12426 O22        -11.8470    39.7180   -20.5070 O.2      99  POP93      -0.2650
 12427 C22        -10.9850    38.2030   -18.7750 C.3      99  POP93       0.0332
 12428 H2R        -10.2670    37.4960   -19.2010 H        99  POP93       0.0366
 12429 H2S        -11.6190    37.6740   -18.1030 H        99  POP93       0.0366
 12430 C3         -14.9600    39.0510   -20.3640 C.3      99  POP93       0.0860
 12431 HX         -15.8030    39.1360   -21.1060 H        99  POP93       0.0593
 12432 HY         -14.6300    40.0430   -20.1890 H        99  POP93       0.0593
 12433 O31        -15.4430    38.5090   -19.1200 O.3      99  POP93      -0.3125
 12434 C31        -14.8150    38.9320   -17.9590 C.2      99  POP93       0.2622
 12435 O32        -13.8390    39.7000   -17.9740 O.2      99  POP93      -0.2650
 12436 C32        -15.6020    38.3900   -16.7080 C.3      99  POP93       0.0332
 12437 H2X        -15.0340    37.5480   -16.2540 H        99  POP93       0.0366
 12438 H2Y        -16.5390    38.0090   -17.1300 H        99  POP93       0.0366
 12439 C23        -10.2310    39.3690   -18.0840 C.3      99  POP93      -0.0441
 12440 H3R        -10.9280    40.2230   -17.9000 H        99  POP93       0.0270
 12441 H3S         -9.4890    39.7120   -18.7480 H        99  POP93       0.0270
 12442 C24         -9.5890    38.9120   -16.8100 C.3      99  POP93      -0.0526
 12443 H4R         -8.8130    38.1380   -16.9740 H        99  POP93       0.0265
 12444 H4S        -10.4260    38.4080   -16.3940 H        99  POP93       0.0265
 12445 C25         -9.0420    40.0640   -15.9090 C.3      99  POP93      -0.0530
 12446 H5R         -8.4790    40.8610   -16.4190 H        99  POP93       0.0265
 12447 H5S         -8.3790    39.5820   -15.0520 H        99  POP93       0.0265
 12448 C26        -10.2340    40.6980   -15.1110 C.3      99  POP93      -0.0528
 12449 H6R        -10.9310    39.9060   -14.7910 H        99  POP93       0.0265
 12450 H6S        -10.9550    41.2450   -15.7300 H        99  POP93       0.0265
 12451 C27         -9.7600    41.5880   -13.8880 C.3      99  POP93      -0.0496
 12452 H7R         -9.4790    42.6070   -14.2190 H        99  POP93       0.0268
 12453 H7S         -8.8450    41.1210   -13.3590 H        99  POP93       0.0268
 12454 C28        -10.8200    41.6720   -12.8860 C.3      99  POP93      -0.0348
 12455 H8R        -10.3240    41.9070   -11.8980 H        99  POP93       0.0307
 12456 H8S        -11.0930    40.6110   -12.6400 H        99  POP93       0.0307
 12457 C29        -12.0750    42.4900   -13.1100 C.2      99  POP93      -0.0879
 12458 H91        -12.4520    42.4010   -14.0630 H        99  POP93       0.0569
 12459 C210       -12.5930    43.3910   -12.2310 C.2      99  POP93      -0.0879
 12460 H101       -13.4320    43.9150   -12.6060 H        99  POP93       0.0569
 12461 C211       -12.1880    43.7500   -10.8260 C.3      99  POP93      -0.0348
 12462 H11R       -12.3240    44.8250   -10.7130 H        99  POP93       0.0307
 12463 H11S       -11.0930    43.5680   -10.4860 H        99  POP93       0.0307
 12464 C212       -13.0600    43.1310    -9.8070 C.3      99  POP93      -0.0496
 12465 H12R       -13.0800    42.0060    -9.9390 H        99  POP93       0.0268
 12466 H12S       -14.0990    43.5180    -9.8410 H        99  POP93       0.0268
 12467 C213       -12.6870    43.6440    -8.3560 C.3      99  POP93      -0.0528
 12468 H13R       -12.8610    44.7360    -8.4470 H        99  POP93       0.0265
 12469 H13S       -11.6900    43.5770    -8.1190 H        99  POP93       0.0265
 12470 C214       -13.6120    42.9460    -7.2980 C.3      99  POP93      -0.0530
 12471 H14R       -12.9230    42.7690    -6.4520 H        99  POP93       0.0265
 12472 H14S       -13.9230    41.9850    -7.8270 H        99  POP93       0.0265
 12473 C215       -14.7960    43.8430    -6.8770 C.3      99  POP93      -0.0531
 12474 H15R       -15.3080    44.3060    -7.7180 H        99  POP93       0.0265
 12475 H15S       -14.3530    44.7730    -6.3200 H        99  POP93       0.0265
 12476 C216       -15.7860    43.2490    -5.8280 C.3      99  POP93      -0.0533
 12477 H16R       -15.4510    43.2850    -4.7510 H        99  POP93       0.0265
 12478 H16S       -15.8490    42.1970    -5.9210 H        99  POP93       0.0265
 12479 C217       -17.2110    43.7230    -5.7590 C.3      99  POP93      -0.0559
 12480 H17R       -17.7460    43.4180    -6.6980 H        99  POP93       0.0263
 12481 H17S       -17.2930    44.8610    -5.6600 H        99  POP93       0.0263
 12482 C218       -17.9140    43.1480    -4.5330 C.3      99  POP93      -0.0653
 12483 H18R       -18.9840    42.9000    -4.8280 H        99  POP93       0.0230
 12484 H18S       -17.9130    43.9720    -3.7480 H        99  POP93       0.0230
 12485 H18T       -17.4290    42.2520    -4.1050 H        99  POP93       0.0230
 12486 C33        -15.9670    39.4300   -15.6800 C.3      99  POP93      -0.0441
 12487 H3X        -16.8640    39.1200   -15.1880 H        99  POP93       0.0270
 12488 H3Y        -16.1880    40.4480   -16.1480 H        99  POP93       0.0270
 12489 C34        -14.8950    39.7870   -14.6060 C.3      99  POP93      -0.0526
 12490 H4X        -15.3920    40.5860   -13.9940 H        99  POP93       0.0265
 12491 H4Y        -13.9200    40.0690   -15.0560 H        99  POP93       0.0265
 12492 C35        -14.8180    38.6510   -13.5330 C.3      99  POP93      -0.0530
 12493 H5X        -14.5070    37.8310   -14.1070 H        99  POP93       0.0265
 12494 H5Y        -15.8290    38.3630   -13.0240 H        99  POP93       0.0265
 12495 C36        -13.7170    38.7800   -12.4480 C.3      99  POP93      -0.0531
 12496 H6X        -12.7930    39.0310   -12.9420 H        99  POP93       0.0265
 12497 H6Y        -13.5080    37.9080   -11.7860 H        99  POP93       0.0265
 12498 C37        -14.0460    39.8720   -11.3230 C.3      99  POP93      -0.0531
 12499 H7X        -14.5180    40.7090   -11.8870 H        99  POP93       0.0265
 12500 H7Y        -12.9310    40.1440   -11.0710 H        99  POP93       0.0265
 12501 C38        -14.6650    39.2690   -10.0310 C.3      99  POP93      -0.0531
 12502 H8X        -15.4100    38.4720   -10.2670 H        99  POP93       0.0265
 12503 H8Y        -15.0980    40.2000    -9.5280 H        99  POP93       0.0265
 12504 C39        -13.6100    38.6250    -9.1610 C.3      99  POP93      -0.0531
 12505 H9X        -12.8440    39.3960    -8.8770 H        99  POP93       0.0265
 12506 H9Y        -13.1550    37.9590    -9.8630 H        99  POP93       0.0265
 12507 C310       -14.1140    37.9450    -7.8750 C.3      99  POP93      -0.0531
 12508 H10X       -13.2930    37.8320    -7.1390 H        99  POP93       0.0265
 12509 H10Y       -14.3210    36.8840    -8.0280 H        99  POP93       0.0265
 12510 C311       -15.2980    38.6480    -7.1950 C.3      99  POP93      -0.0531
 12511 H11X       -16.1820    38.6600    -7.8030 H        99  POP93       0.0265
 12512 H11Y       -15.0820    39.7210    -7.0830 H        99  POP93       0.0265
 12513 C312       -15.6740    38.1920    -5.7930 C.3      99  POP93      -0.0531
 12514 H12X       -16.4130    38.9090    -5.4080 H        99  POP93       0.0265
 12515 H12Y       -14.8390    38.0750    -5.1150 H        99  POP93       0.0265
 12516 C313       -16.2960    36.7410    -5.8560 C.3      99  POP93      -0.0531
 12517 H13X       -15.4880    35.9290    -6.0280 H        99  POP93       0.0265
 12518 H13Y       -17.0770    36.6960    -6.6590 H        99  POP93       0.0265
 12519 C314       -17.0150    36.4500    -4.4910 C.3      99  POP93      -0.0533
 12520 H14X       -17.6470    35.5220    -4.6120 H        99  POP93       0.0265
 12521 H14Y       -17.6510    37.2470    -4.2020 H        99  POP93       0.0265
 12522 C315       -16.0240    36.1180    -3.3760 C.3      99  POP93      -0.0559
 12523 H15X       -15.0510    36.5570    -3.4590 H        99  POP93       0.0263
 12524 H15Y       -15.9350    34.9760    -3.2080 H        99  POP93       0.0263
 12525 C316       -16.5710    36.6150    -2.0100 C.3      99  POP93      -0.0653
 12526 H16X       -15.9740    36.1270    -1.1470 H        99  POP93       0.0230
 12527 H16Y       -17.6340    36.3400    -1.9070 H        99  POP93       0.0230
 12528 H16Z       -16.3970    37.6490    -1.8590 H        99  POP93       0.0230
 12529 N           -6.8960    16.1990   -23.9130 N.3     100  POP94       0.2385
 12530 C12         -6.4030    15.1950   -22.8040 C.3     100  POP94      -0.0064
 12531 H12A        -5.5220    15.6140   -22.3310 H       100  POP94       0.0838
 12532 H12B        -5.9310    14.3030   -23.3790 H       100  POP94       0.0838
 12533 C13         -5.7340    16.8460   -24.5870 C.3     100  POP94      -0.0417
 12534 H13A        -5.0530    17.1580   -23.8610 H       100  POP94       0.0778
 12535 H13B        -5.2160    16.1830   -25.2490 H       100  POP94       0.0778
 12536 H13C        -6.1040    17.5760   -25.2990 H       100  POP94       0.0778
 12537 C14         -7.4620    15.4100   -25.0470 C.3     100  POP94      -0.0417
 12538 H14A        -6.8840    14.5590   -25.4530 H       100  POP94       0.0778
 12539 H14B        -8.4380    15.0880   -24.7030 H       100  POP94       0.0778
 12540 H14C        -7.5740    16.1400   -25.8500 H       100  POP94       0.0778
 12541 C15         -7.8620    17.2220   -23.3500 C.3     100  POP94      -0.0417
 12542 H15A        -8.2600    17.7750   -24.1340 H       100  POP94       0.0778
 12543 H15B        -7.3430    17.8610   -22.6570 H       100  POP94       0.0778
 12544 H15C        -8.6320    16.7090   -22.7480 H       100  POP94       0.0778
 12545 C11         -7.5030    14.7450   -21.8560 C.3     100  POP94       0.0954
 12546 H11A        -7.1490    13.8820   -21.3930 H       100  POP94       0.0618
 12547 H11B        -8.2280    14.5000   -22.6760 H       100  POP94       0.0618
 12548 P           -9.2400    15.1880   -20.0340 P.3     100  POP94       0.2645
 12549 O13         -8.7110    13.9870   -19.3610 O.co2   100  POP94      -0.5105
 12550 O14        -10.4940    15.0140   -20.8550 O.co2   100  POP94      -0.5105
 12551 O12         -8.0600    15.7440   -20.9610 O.3     100  POP94      -0.3154
 12552 O11         -9.5470    16.3820   -18.9180 O.3     100  POP94      -0.3181
 12553 C1          -8.7330    17.4560   -18.7870 C.3     100  POP94       0.0845
 12554 HA          -9.1300    18.1370   -19.5000 H       100  POP94       0.0591
 12555 HB          -7.6690    17.1560   -19.0750 H       100  POP94       0.0591
 12556 C2          -8.7250    17.9140   -17.3480 C.3     100  POP94       0.1155
 12557 HS          -8.5380    17.0770   -16.7660 H       100  POP94       0.0649
 12558 O21         -9.9970    18.6200   -17.1220 O.3     100  POP94      -0.3072
 12559 C21        -10.6950    18.1960   -16.0590 C.2     100  POP94       0.2626
 12560 O22        -10.4300    17.2850   -15.3400 O.2     100  POP94      -0.2650
 12561 C22        -11.9610    19.1570   -15.8290 C.3     100  POP94       0.0332
 12562 H2R        -12.8590    18.4800   -16.0160 H       100  POP94       0.0366
 12563 H2S        -11.8710    20.0520   -16.5090 H       100  POP94       0.0366
 12564 C3          -7.4880    18.8970   -17.0610 C.3     100  POP94       0.0860
 12565 HX          -7.6490    19.8270   -17.7090 H       100  POP94       0.0593
 12566 HY          -6.6100    18.4220   -17.5920 H       100  POP94       0.0593
 12567 O31         -7.2700    19.3550   -15.6130 O.3     100  POP94      -0.3125
 12568 C31         -6.8110    18.3040   -14.9810 C.2     100  POP94       0.2622
 12569 O32         -6.6690    17.1660   -15.2790 O.2     100  POP94      -0.2650
 12570 C32         -6.4070    18.7670   -13.5930 C.3     100  POP94       0.0332
 12571 H2X         -5.8210    19.6810   -13.7900 H       100  POP94       0.0366
 12572 H2Y         -5.6600    18.0120   -13.1800 H       100  POP94       0.0366
 12573 C23        -12.0560    19.6980   -14.3840 C.3     100  POP94      -0.0441
 12574 H3R        -11.0240    20.0890   -14.1640 H       100  POP94       0.0270
 12575 H3S        -12.2400    18.8930   -13.6690 H       100  POP94       0.0270
 12576 C24        -12.9810    20.8950   -14.2330 C.3     100  POP94      -0.0526
 12577 H4R        -14.0710    20.7140   -14.3650 H       100  POP94       0.0265
 12578 H4S        -12.5450    21.5990   -14.9460 H       100  POP94       0.0265
 12579 C25        -12.8560    21.5840   -12.8260 C.3     100  POP94      -0.0530
 12580 H5R        -11.8120    21.6950   -12.6700 H       100  POP94       0.0265
 12581 H5S        -13.0530    20.7780   -12.0750 H       100  POP94       0.0265
 12582 C26        -13.5090    22.8940   -12.6660 C.3     100  POP94      -0.0528
 12583 H6R        -14.6070    22.7840   -12.8940 H       100  POP94       0.0265
 12584 H6S        -12.9880    23.5260   -13.4180 H       100  POP94       0.0265
 12585 C27        -13.2680    23.4210   -11.2640 C.3     100  POP94      -0.0496
 12586 H7R        -13.8080    24.3730   -11.2390 H       100  POP94       0.0268
 12587 H7S        -12.1860    23.6030   -11.1430 H       100  POP94       0.0268
 12588 C28        -13.9250    22.5590   -10.1290 C.3     100  POP94      -0.0348
 12589 H8R        -13.4470    21.5540   -10.1500 H       100  POP94       0.0307
 12590 H8S        -15.0190    22.4540   -10.3650 H       100  POP94       0.0307
 12591 C29        -13.7340    23.0310    -8.6810 C.2     100  POP94      -0.0879
 12592 H91        -12.9170    23.6790    -8.5020 H       100  POP94       0.0569
 12593 C210       -14.5020    22.7590    -7.5670 C.2     100  POP94      -0.0879
 12594 H101       -14.1480    23.2320    -6.5870 H       100  POP94       0.0569
 12595 C211       -15.7180    21.8220    -7.4830 C.3     100  POP94      -0.0348
 12596 H11R       -16.3470    21.8170    -8.4430 H       100  POP94       0.0307
 12597 H11S       -16.3180    22.3000    -6.7910 H       100  POP94       0.0307
 12598 C212       -15.3460    20.3440    -7.0090 C.3     100  POP94      -0.0496
 12599 H12R       -16.2680    19.8300    -6.7530 H       100  POP94       0.0268
 12600 H12S       -14.8410    20.5030    -6.0050 H       100  POP94       0.0268
 12601 C213       -14.5280    19.4970    -7.9670 C.3     100  POP94      -0.0528
 12602 H13R       -14.0780    18.6680    -7.3560 H       100  POP94       0.0265
 12603 H13S       -13.7130    20.2400    -8.3180 H       100  POP94       0.0265
 12604 C214       -15.2980    18.9800    -9.2070 C.3     100  POP94      -0.0530
 12605 H14R       -15.6790    19.8000    -9.8110 H       100  POP94       0.0265
 12606 H14S       -16.0940    18.3320    -8.8450 H       100  POP94       0.0265
 12607 C215       -14.3380    18.1120    -9.9670 C.3     100  POP94      -0.0531
 12608 H15R       -13.8920    17.4140    -9.2790 H       100  POP94       0.0265
 12609 H15S       -13.5640    18.7680   -10.2650 H       100  POP94       0.0265
 12610 C216       -15.0860    17.3070   -11.1050 C.3     100  POP94      -0.0533
 12611 H16R       -15.3740    18.1380   -11.7840 H       100  POP94       0.0265
 12612 H16S       -16.0850    16.7800   -10.7590 H       100  POP94       0.0265
 12613 C217       -14.2280    16.2280   -11.8060 C.3     100  POP94      -0.0559
 12614 H17R       -14.9000    15.5160   -12.3300 H       100  POP94       0.0263
 12615 H17S       -13.7260    15.7150   -10.9140 H       100  POP94       0.0263
 12616 C218       -13.2280    16.6740   -12.7240 C.3     100  POP94      -0.0653
 12617 H18R       -13.6730    17.4680   -13.3450 H       100  POP94       0.0230
 12618 H18S       -12.8710    15.8130   -13.3760 H       100  POP94       0.0230
 12619 H18T       -12.3520    17.1680   -12.2320 H       100  POP94       0.0230
 12620 C33         -7.6310    19.0620   -12.6920 C.3     100  POP94      -0.0441
 12621 H3X         -8.2230    19.8110   -13.2200 H       100  POP94       0.0270
 12622 H3Y         -7.2100    19.4900   -11.7590 H       100  POP94       0.0270
 12623 C34         -8.4020    17.8710   -12.3910 C.3     100  POP94      -0.0526
 12624 H4X         -7.7240    17.2440   -11.9100 H       100  POP94       0.0265
 12625 H4Y         -8.5600    17.2320   -13.2560 H       100  POP94       0.0265
 12626 C35         -9.7600    18.0610   -11.6630 C.3     100  POP94      -0.0530
 12627 H5X        -10.2560    17.0780   -11.4470 H       100  POP94       0.0265
 12628 H5Y        -10.4500    18.6720   -12.3080 H       100  POP94       0.0265
 12629 C36         -9.6240    18.8640   -10.3660 C.3     100  POP94      -0.0531
 12630 H6X         -9.1670    19.8200   -10.5920 H       100  POP94       0.0265
 12631 H6Y         -8.9370    18.4110    -9.6170 H       100  POP94       0.0265
 12632 C37        -10.8720    19.0680    -9.5680 C.3     100  POP94      -0.0531
 12633 H7X        -11.1550    18.0180    -9.5220 H       100  POP94       0.0265
 12634 H7Y        -11.6040    19.6800   -10.2250 H       100  POP94       0.0265
 12635 C38        -10.7540    19.5850    -8.1640 C.3     100  POP94      -0.0531
 12636 H8X        -10.3680    18.7650    -7.4550 H       100  POP94       0.0265
 12637 H8Y        -11.7980    19.7760    -7.8210 H       100  POP94       0.0265
 12638 C39        -10.0240    20.9290    -7.9180 C.3     100  POP94      -0.0531
 12639 H9X        -10.4990    21.7420    -8.4610 H       100  POP94       0.0265
 12640 H9Y         -8.9750    20.8030    -8.2710 H       100  POP94       0.0265
 12641 C310       -10.0060    21.5420    -6.4680 C.3     100  POP94      -0.0531
 12642 H10X        -9.9090    20.7100    -5.7240 H       100  POP94       0.0265
 12643 H10Y       -10.9850    21.9360    -6.1540 H       100  POP94       0.0265
 12644 C311        -8.9350    22.6410    -6.3270 C.3     100  POP94      -0.0531
 12645 H11X        -9.2490    23.6800    -6.8210 H       100  POP94       0.0265
 12646 H11Y        -8.0070    22.3500    -6.8510 H       100  POP94       0.0265
 12647 C312        -8.6610    23.1120    -4.9150 C.3     100  POP94      -0.0531
 12648 H12X        -9.6120    23.3860    -4.3560 H       100  POP94       0.0265
 12649 H12Y        -8.0580    24.0550    -4.8710 H       100  POP94       0.0265
 12650 C313        -7.9930    21.9570    -4.1530 C.3     100  POP94      -0.0531
 12651 H13X        -6.8330    21.8150    -4.4120 H       100  POP94       0.0265
 12652 H13Y        -8.5460    21.0060    -4.3430 H       100  POP94       0.0265
 12653 C314        -8.1390    22.0570    -2.6480 C.3     100  POP94      -0.0533
 12654 H14X        -9.1740    22.3310    -2.4360 H       100  POP94       0.0265
 12655 H14Y        -7.4600    22.8780    -2.3400 H       100  POP94       0.0265
 12656 C315        -7.6570    20.8110    -1.9420 C.3     100  POP94      -0.0559
 12657 H15X        -8.2770    19.9210    -2.2110 H       100  POP94       0.0263
 12658 H15Y        -7.9560    20.9660    -0.9010 H       100  POP94       0.0263
 12659 C316        -6.1920    20.5490    -1.9980 C.3     100  POP94      -0.0653
 12660 H16X        -5.9840    19.5730    -1.4630 H       100  POP94       0.0230
 12661 H16Y        -5.5470    21.2630    -1.4590 H       100  POP94       0.0230
 12662 H16Z        -5.8070    20.2870    -3.0120 H       100  POP94       0.0230
 12663 N          -13.9710   -20.8120   -21.2930 N.3     101  POP95       0.2385
 12664 C12        -13.6040   -19.9270   -20.1140 C.3     101  POP95      -0.0064
 12665 H12A       -14.2320   -20.1470   -19.2610 H       101  POP95       0.0838
 12666 H12B       -13.9350   -18.9400   -20.4450 H       101  POP95       0.0838
 12667 C13        -13.6530   -22.2860   -21.0300 C.3     101  POP95      -0.0417
 12668 H13A       -14.2010   -22.6890   -20.1310 H       101  POP95       0.0778
 12669 H13B       -14.0250   -22.8580   -21.8730 H       101  POP95       0.0778
 12670 H13C       -12.5670   -22.4260   -20.9720 H       101  POP95       0.0778
 12671 C14        -15.4500   -20.6990   -21.5950 C.3     101  POP95      -0.0417
 12672 H14A       -15.9770   -21.1590   -20.7780 H       101  POP95       0.0778
 12673 H14B       -15.7870   -19.7170   -21.6660 H       101  POP95       0.0778
 12674 H14C       -15.7690   -21.3150   -22.4290 H       101  POP95       0.0778
 12675 C15        -13.2890   -20.3420   -22.5740 C.3     101  POP95      -0.0417
 12676 H15A       -13.2140   -21.1350   -23.2740 H       101  POP95       0.0778
 12677 H15B       -12.2300   -20.2430   -22.2730 H       101  POP95       0.0778
 12678 H15C       -13.6930   -19.3860   -22.9510 H       101  POP95       0.0778
 12679 C11        -12.2130   -19.7630   -19.5140 C.3     101  POP95       0.0954
 12680 H11A       -12.0340   -20.6580   -18.9390 H       101  POP95       0.0618
 12681 H11B       -12.1160   -18.7900   -18.8580 H       101  POP95       0.0618
 12682 P          -10.8330   -18.1420   -20.9730 P.3     101  POP95       0.2645
 12683 O13        -11.9670   -17.2070   -21.1280 O.co2   101  POP95      -0.5105
 12684 O14         -9.9150   -18.2800   -22.0720 O.co2   101  POP95      -0.5105
 12685 O12        -11.2520   -19.6230   -20.5720 O.3     101  POP95      -0.3154
 12686 O11        -10.0830   -17.7070   -19.6480 O.3     101  POP95      -0.3181
 12687 C1          -9.0410   -18.5450   -19.1130 C.3     101  POP95       0.0845
 12688 HA          -8.1810   -17.8880   -18.8740 H       101  POP95       0.0591
 12689 HB          -8.6010   -19.2600   -19.8900 H       101  POP95       0.0591
 12690 C2          -9.4400   -19.2000   -17.7860 C.3     101  POP95       0.1155
 12691 HS         -10.2090   -19.9740   -17.9810 H       101  POP95       0.0649
 12692 O21        -10.0470   -18.1790   -16.9080 O.3     101  POP95      -0.3072
 12693 C21        -10.9200   -18.7390   -16.0380 C.2     101  POP95       0.2626
 12694 O22        -11.2670   -19.8900   -16.0850 O.2     101  POP95      -0.2650
 12695 C22        -11.5410   -17.7920   -14.9460 C.3     101  POP95       0.0332
 12696 H2R        -12.0640   -17.0100   -15.5120 H       101  POP95       0.0366
 12697 H2S        -10.7010   -17.2740   -14.4580 H       101  POP95       0.0366
 12698 C3          -8.1500   -19.8570   -17.0630 C.3     101  POP95       0.0860
 12699 HX          -7.9890   -20.7820   -17.6310 H       101  POP95       0.0593
 12700 HY          -8.4750   -20.1420   -16.0270 H       101  POP95       0.0593
 12701 O31         -6.8880   -19.0830   -16.9040 O.3     101  POP95      -0.3125
 12702 C31         -6.9080   -18.3040   -15.7850 C.2     101  POP95       0.2622
 12703 O32         -7.9010   -18.1270   -15.1160 O.2     101  POP95      -0.2650
 12704 C32         -5.4470   -17.8890   -15.5320 C.3     101  POP95       0.0332
 12705 H2X         -5.3060   -16.9100   -16.0240 H       101  POP95       0.0366
 12706 H2Y         -4.7430   -18.6960   -15.9240 H       101  POP95       0.0366
 12707 C23        -12.6000   -18.4660   -14.0070 C.3     101  POP95      -0.0441
 12708 H3R        -13.3860   -18.9850   -14.5700 H       101  POP95       0.0270
 12709 H3S        -13.2480   -17.5680   -13.6970 H       101  POP95       0.0270
 12710 C24        -12.1200   -19.1790   -12.8340 C.3     101  POP95      -0.0526
 12711 H4R        -11.5210   -20.0860   -13.1430 H       101  POP95       0.0265
 12712 H4S        -12.9610   -19.5720   -12.2230 H       101  POP95       0.0265
 12713 C25        -11.1770   -18.2830   -11.9220 C.3     101  POP95      -0.0530
 12714 H5R        -11.7330   -17.3910   -11.4730 H       101  POP95       0.0265
 12715 H5S        -10.3810   -17.8490   -12.6030 H       101  POP95       0.0265
 12716 C26        -10.3440   -19.0030   -10.8520 C.3     101  POP95      -0.0528
 12717 H6R         -9.6770   -19.6500   -11.4390 H       101  POP95       0.0265
 12718 H6S        -10.9790   -19.5670   -10.2310 H       101  POP95       0.0265
 12719 C27         -9.5540   -17.9580   -10.0090 C.3     101  POP95      -0.0496
 12720 H7R        -10.3050   -17.4820    -9.3450 H       101  POP95       0.0268
 12721 H7S         -9.1380   -17.2000   -10.7250 H       101  POP95       0.0268
 12722 C28         -8.4190   -18.5510    -9.1440 C.3     101  POP95      -0.0348
 12723 H8R         -8.0840   -17.6310    -8.6400 H       101  POP95       0.0307
 12724 H8S         -7.6470   -18.9250    -9.8350 H       101  POP95       0.0307
 12725 C29         -8.7800   -19.6680    -8.2480 C.2     101  POP95      -0.0879
 12726 H91         -9.3520   -20.4770    -8.7830 H       101  POP95       0.0569
 12727 C210        -8.7070   -19.7310    -6.9230 C.2     101  POP95      -0.0879
 12728 H101        -9.1610   -20.5970    -6.4290 H       101  POP95       0.0569
 12729 C211        -7.8180   -18.7880    -6.0710 C.3     101  POP95      -0.0348
 12730 H11R        -8.1910   -18.7790    -5.0910 H       101  POP95       0.0307
 12731 H11S        -8.0080   -17.7850    -6.4740 H       101  POP95       0.0307
 12732 C212        -6.2870   -19.2330    -6.0350 C.3     101  POP95      -0.0496
 12733 H12R        -5.9980   -19.3600    -7.0810 H       101  POP95       0.0268
 12734 H12S        -6.1100   -20.2000    -5.5560 H       101  POP95       0.0268
 12735 C213        -5.4000   -18.1610    -5.4720 C.3     101  POP95      -0.0528
 12736 H13R        -5.8070   -17.9440    -4.4490 H       101  POP95       0.0265
 12737 H13S        -5.5020   -17.3150    -6.1150 H       101  POP95       0.0265
 12738 C214        -3.9960   -18.7320    -5.2960 C.3     101  POP95      -0.0530
 12739 H14R        -3.6770   -19.0790    -6.3550 H       101  POP95       0.0265
 12740 H14S        -3.9300   -19.5670    -4.5940 H       101  POP95       0.0265
 12741 C215        -2.9720   -17.5950    -4.9190 C.3     101  POP95      -0.0531
 12742 H15R        -2.0870   -17.9650    -4.4620 H       101  POP95       0.0265
 12743 H15S        -3.3980   -17.0260    -4.0140 H       101  POP95       0.0265
 12744 C216        -2.6100   -16.5270    -6.0190 C.3     101  POP95      -0.0533
 12745 H16R        -1.8910   -15.8150    -5.6280 H       101  POP95       0.0265
 12746 H16S        -3.4730   -15.9800    -6.2710 H       101  POP95       0.0265
 12747 C217        -2.0740   -17.0380    -7.4240 C.3     101  POP95      -0.0559
 12748 H17R        -2.8410   -17.6940    -7.8210 H       101  POP95       0.0263
 12749 H17S        -1.1530   -17.6690    -7.2970 H       101  POP95       0.0263
 12750 C218        -1.6790   -15.9530    -8.4940 C.3     101  POP95      -0.0653
 12751 H18R        -1.1660   -16.5120    -9.2540 H       101  POP95       0.0230
 12752 H18S        -0.8480   -15.3610    -8.0130 H       101  POP95       0.0230
 12753 H18T        -2.5370   -15.3320    -8.9250 H       101  POP95       0.0230
 12754 C33         -5.1050   -17.7520   -14.0730 C.3     101  POP95      -0.0441
 12755 H3X         -4.0240   -17.4400   -14.0250 H       101  POP95       0.0270
 12756 H3Y         -5.1340   -18.7160   -13.4300 H       101  POP95       0.0270
 12757 C34         -5.8600   -16.6930   -13.3110 C.3     101  POP95      -0.0526
 12758 H4X         -6.9310   -16.9510   -13.2400 H       101  POP95       0.0265
 12759 H4Y         -5.7150   -15.8980   -13.9740 H       101  POP95       0.0265
 12760 C35         -5.1580   -16.2920   -12.0010 C.3     101  POP95      -0.0530
 12761 H5X         -4.2950   -15.6430   -12.2140 H       101  POP95       0.0265
 12762 H5Y         -4.7550   -17.2740   -11.5130 H       101  POP95       0.0265
 12763 C36         -6.1420   -15.5240   -11.1350 C.3     101  POP95      -0.0531
 12764 H6X         -7.2570   -15.8580   -11.2620 H       101  POP95       0.0265
 12765 H6Y         -6.0940   -14.4000   -11.5630 H       101  POP95       0.0265
 12766 C37         -5.8550   -15.4680    -9.6160 C.3     101  POP95      -0.0531
 12767 H7X         -4.8760   -14.9250    -9.5830 H       101  POP95       0.0265
 12768 H7Y         -5.7620   -16.4470    -9.1590 H       101  POP95       0.0265
 12769 C38         -6.8180   -14.5910    -8.8710 C.3     101  POP95      -0.0531
 12770 H8X         -7.7930   -15.0720    -8.8750 H       101  POP95       0.0265
 12771 H8Y         -6.9250   -13.5400    -9.2510 H       101  POP95       0.0265
 12772 C39         -6.3730   -14.4420    -7.3900 C.3     101  POP95      -0.0531
 12773 H9X         -6.1950   -15.4870    -7.0420 H       101  POP95       0.0265
 12774 H9Y         -7.2070   -14.0810    -6.7760 H       101  POP95       0.0265
 12775 C310        -5.1710   -13.5560    -7.1950 C.3     101  POP95      -0.0531
 12776 H10X        -5.3320   -12.6020    -7.8020 H       101  POP95       0.0265
 12777 H10Y        -4.2340   -14.0730    -7.4430 H       101  POP95       0.0265
 12778 C311        -5.1990   -13.0250    -5.7940 C.3     101  POP95      -0.0531
 12779 H11X        -6.0010   -12.4590    -5.6020 H       101  POP95       0.0265
 12780 H11Y        -4.2400   -12.4040    -5.6390 H       101  POP95       0.0265
 12781 C312        -5.3750   -14.0910    -4.6800 C.3     101  POP95      -0.0531
 12782 H12X        -4.8340   -14.9470    -4.9700 H       101  POP95       0.0265
 12783 H12Y        -6.4300   -14.2780    -4.6170 H       101  POP95       0.0265
 12784 C313        -4.8880   -13.7730    -3.2520 C.3     101  POP95      -0.0531
 12785 H13X        -5.4310   -12.8860    -2.9170 H       101  POP95       0.0265
 12786 H13Y        -3.8780   -13.4490    -3.1360 H       101  POP95       0.0265
 12787 C314        -5.2250   -14.9930    -2.2930 C.3     101  POP95      -0.0533
 12788 H14X        -4.3770   -15.7570    -2.4300 H       101  POP95       0.0265
 12789 H14Y        -6.1650   -15.5730    -2.4750 H       101  POP95       0.0265
 12790 C315        -5.1700   -14.5850    -0.7800 C.3     101  POP95      -0.0559
 12791 H15X        -4.1920   -13.9860    -0.6040 H       101  POP95       0.0263
 12792 H15Y        -5.0990   -15.5330    -0.0990 H       101  POP95       0.0263
 12793 C316        -6.3580   -13.7880    -0.4210 C.3     101  POP95      -0.0653
 12794 H16X        -6.3940   -13.5030     0.6330 H       101  POP95       0.0230
 12795 H16Y        -7.3310   -14.3490    -0.5750 H       101  POP95       0.0230
 12796 H16Z        -6.3840   -12.8560    -1.1170 H       101  POP95       0.0230
 12797 N           13.3280   -18.4590   -23.4630 N.3     102  POP96       0.2385
 12798 C12         13.4420   -18.3520   -21.8930 C.3     102  POP96      -0.0064
 12799 H12A        14.2530   -17.6760   -21.6340 H       102  POP96       0.0838
 12800 H12B        13.6990   -19.3020   -21.4150 H       102  POP96       0.0838
 12801 C13         14.6530   -18.7110   -24.0570 C.3     102  POP96      -0.0417
 12802 H13A        15.4420   -18.1060   -23.7560 H       102  POP96       0.0778
 12803 H13B        14.9890   -19.7510   -24.0130 H       102  POP96       0.0778
 12804 H13C        14.5250   -18.5730   -25.1630 H       102  POP96       0.0778
 12805 C14         12.4150   -19.5580   -23.8150 C.3     102  POP96      -0.0417
 12806 H14A        12.7910   -20.4810   -23.3620 H       102  POP96       0.0778
 12807 H14B        11.3810   -19.3770   -23.4350 H       102  POP96       0.0778
 12808 H14C        12.2590   -19.7510   -24.8860 H       102  POP96       0.0778
 12809 C15         12.8290   -17.2070   -24.1160 C.3     102  POP96      -0.0417
 12810 H15A        11.7910   -17.0450   -23.8470 H       102  POP96       0.0778
 12811 H15B        12.7640   -17.3430   -25.2210 H       102  POP96       0.0778
 12812 H15C        13.3570   -16.3850   -23.8580 H       102  POP96       0.0778
 12813 C11         12.1260   -17.8520   -21.1910 C.3     102  POP96       0.0954
 12814 H11A        11.8510   -16.9070   -21.6160 H       102  POP96       0.0618
 12815 H11B        12.3550   -17.3630   -20.1460 H       102  POP96       0.0618
 12816 P           11.1770   -20.0700   -20.2290 P.3     102  POP96       0.2645
 12817 O13         12.5340   -20.6190   -20.2460 O.co2   102  POP96      -0.5105
 12818 O14         10.0710   -20.9410   -20.6100 O.co2   102  POP96      -0.5105
 12819 O12         11.0820   -18.7850   -21.1420 O.3     102  POP96      -0.3154
 12820 O11         10.8650   -19.4900   -18.7790 O.3     102  POP96      -0.3181
 12821 C1          11.9660   -19.0960   -17.8970 C.3     102  POP96       0.0845
 12822 HA          11.9050   -17.9720   -17.8710 H       102  POP96       0.0591
 12823 HB          13.0100   -19.3610   -18.2680 H       102  POP96       0.0591
 12824 C2          11.9130   -19.7730   -16.5200 C.3     102  POP96       0.1155
 12825 HS          12.0690   -20.8600   -16.8570 H       102  POP96       0.0649
 12826 O21         10.6940   -19.4520   -15.8520 O.3     102  POP96      -0.3072
 12827 C21          9.8570   -20.4630   -15.6430 C.2     102  POP96       0.2626
 12828 O22          9.8640   -21.5200   -16.2800 O.2     102  POP96      -0.2650
 12829 C22          8.7060   -20.0580   -14.7720 C.3     102  POP96       0.0332
 12830 H2R          8.4730   -19.0060   -15.0010 H       102  POP96       0.0366
 12831 H2S          9.1330   -20.0820   -13.6610 H       102  POP96       0.0366
 12832 C3          13.0920   -19.2790   -15.6690 C.3     102  POP96       0.0860
 12833 HX          13.0700   -18.1380   -15.6230 H       102  POP96       0.0593
 12834 HY          14.0620   -19.5110   -16.2520 H       102  POP96       0.0593
 12835 O31         12.9950   -19.8540   -14.3310 O.3     102  POP96      -0.3125
 12836 C31         14.1220   -20.4000   -13.8070 C.2     102  POP96       0.2622
 12837 O32         15.2150   -20.2680   -14.2580 O.2     102  POP96      -0.2650
 12838 C32         13.8350   -20.9750   -12.4170 C.3     102  POP96       0.0332
 12839 H2X         12.9490   -21.5730   -12.5450 H       102  POP96       0.0366
 12840 H2Y         13.5690   -20.2130   -11.7360 H       102  POP96       0.0366
 12841 C23          7.3790   -20.8680   -14.8040 C.3     102  POP96      -0.0441
 12842 H3R          7.6560   -21.9050   -14.5020 H       102  POP96       0.0270
 12843 H3S          6.9620   -20.8810   -15.8760 H       102  POP96       0.0270
 12844 C24          6.3870   -20.4290   -13.8240 C.3     102  POP96      -0.0526
 12845 H4R          5.7870   -19.6970   -14.3430 H       102  POP96       0.0265
 12846 H4S          6.9400   -19.9830   -12.8620 H       102  POP96       0.0265
 12847 C25          5.5030   -21.6160   -13.3850 C.3     102  POP96      -0.0530
 12848 H5R          6.0610   -22.4200   -12.8220 H       102  POP96       0.0265
 12849 H5S          5.1560   -22.0110   -14.3590 H       102  POP96       0.0265
 12850 C26          4.2680   -21.1790   -12.6550 C.3     102  POP96      -0.0528
 12851 H6R          3.7150   -22.0730   -12.4250 H       102  POP96       0.0265
 12852 H6S          3.6210   -20.4980   -13.2530 H       102  POP96       0.0265
 12853 C27          4.4930   -20.4340   -11.3710 C.3     102  POP96      -0.0496
 12854 H7R          5.2100   -19.6200   -11.5400 H       102  POP96       0.0268
 12855 H7S          5.1670   -21.1120   -10.8100 H       102  POP96       0.0268
 12856 C28          3.2270   -19.9140   -10.6920 C.3     102  POP96      -0.0348
 12857 H8R          2.6800   -19.3300   -11.4170 H       102  POP96       0.0307
 12858 H8S          3.4750   -19.1600    -9.9170 H       102  POP96       0.0307
 12859 C29          2.3490   -21.0220   -10.1710 C.2     102  POP96      -0.0879
 12860 H91          1.4470   -21.3050   -10.7780 H       102  POP96       0.0569
 12861 C210         2.5130   -21.6820    -8.9930 C.2     102  POP96      -0.0879
 12862 H101         1.7170   -22.3510    -8.5730 H       102  POP96       0.0569
 12863 C211         3.5750   -21.3320    -8.0290 C.3     102  POP96      -0.0348
 12864 H11R         3.6320   -20.1710    -7.8890 H       102  POP96       0.0307
 12865 H11S         4.5660   -21.7440    -8.3300 H       102  POP96       0.0307
 12866 C212         3.2580   -22.0390    -6.6830 C.3     102  POP96      -0.0496
 12867 H12R         3.3920   -23.1720    -6.8910 H       102  POP96       0.0268
 12868 H12S         2.1640   -22.0960    -6.2950 H       102  POP96       0.0268
 12869 C213         4.1280   -21.6250    -5.5220 C.3     102  POP96      -0.0528
 12870 H13R         3.8220   -20.6070    -5.1340 H       102  POP96       0.0265
 12871 H13S         5.1670   -21.6250    -5.7820 H       102  POP96       0.0265
 12872 C214         4.0920   -22.6480    -4.3350 C.3     102  POP96      -0.0530
 12873 H14R         4.1980   -23.6860    -4.8020 H       102  POP96       0.0265
 12874 H14S         3.1680   -22.7060    -3.7730 H       102  POP96       0.0265
 12875 C215         5.2730   -22.3850    -3.4510 C.3     102  POP96      -0.0531
 12876 H15R         5.0210   -21.4350    -3.0350 H       102  POP96       0.0265
 12877 H15S         6.1900   -22.3680    -4.0460 H       102  POP96       0.0265
 12878 C216         5.3920   -23.4430    -2.3660 C.3     102  POP96      -0.0533
 12879 H16R         5.8500   -24.3440    -2.8700 H       102  POP96       0.0265
 12880 H16S         4.3870   -23.7310    -1.9850 H       102  POP96       0.0265
 12881 C217         6.3560   -22.9780    -1.2170 C.3     102  POP96      -0.0559
 12882 H17R         5.9300   -22.0530    -0.7170 H       102  POP96       0.0263
 12883 H17S         7.4300   -22.6690    -1.7160 H       102  POP96       0.0263
 12884 C218         6.4290   -24.0550    -0.1500 C.3     102  POP96      -0.0653
 12885 H18R         7.1850   -23.7930     0.6470 H       102  POP96       0.0230
 12886 H18S         6.7380   -25.0030    -0.6780 H       102  POP96       0.0230
 12887 H18T         5.4580   -24.1290     0.3620 H       102  POP96       0.0230
 12888 C33         15.0020   -21.8990   -11.8350 C.3     102  POP96      -0.0441
 12889 H3X         15.8920   -21.2820   -11.9920 H       102  POP96       0.0270
 12890 H3Y         15.1280   -22.8330   -12.4550 H       102  POP96       0.0270
 12891 C34         14.8190   -22.2300   -10.2760 C.3     102  POP96      -0.0526
 12892 H4X         15.2930   -23.2690   -10.1560 H       102  POP96       0.0265
 12893 H4Y         13.7080   -22.2580    -9.9890 H       102  POP96       0.0265
 12894 C35         15.5500   -21.2400    -9.3570 C.3     102  POP96      -0.0530
 12895 H5X         14.9160   -20.3720    -9.3000 H       102  POP96       0.0265
 12896 H5Y         16.4570   -20.8910    -9.9920 H       102  POP96       0.0265
 12897 C36         15.9660   -21.7800    -8.0310 C.3     102  POP96      -0.0531
 12898 H6X         16.4980   -21.0350    -7.3150 H       102  POP96       0.0265
 12899 H6Y         16.6360   -22.6360    -8.2320 H       102  POP96       0.0265
 12900 C37         14.8020   -22.3560    -7.1990 C.3     102  POP96      -0.0531
 12901 H7X         14.2290   -23.1230    -7.7430 H       102  POP96       0.0265
 12902 H7Y         14.0880   -21.5920    -7.0510 H       102  POP96       0.0265
 12903 C38         15.2720   -22.9370    -5.8360 C.3     102  POP96      -0.0531
 12904 H8X         14.3950   -22.9960    -5.1880 H       102  POP96       0.0265
 12905 H8Y         16.0000   -22.1310    -5.5660 H       102  POP96       0.0265
 12906 C39         15.8130   -24.4100    -5.9070 C.3     102  POP96      -0.0531
 12907 H9X         16.4620   -24.4110    -6.8280 H       102  POP96       0.0265
 12908 H9Y         14.9560   -25.1870    -5.8910 H       102  POP96       0.0265
 12909 C310        16.7100   -24.8370    -4.7570 C.3     102  POP96      -0.0531
 12910 H10X        17.6680   -24.1740    -4.8990 H       102  POP96       0.0265
 12911 H10Y        16.9610   -25.9640    -4.7620 H       102  POP96       0.0265
 12912 C311        16.2300   -24.4430    -3.3130 C.3     102  POP96      -0.0531
 12913 H11X        15.9550   -23.3700    -3.2210 H       102  POP96       0.0265
 12914 H11Y        17.1130   -24.7160    -2.6150 H       102  POP96       0.0265
 12915 C312        14.9680   -25.2770    -2.9580 C.3     102  POP96      -0.0531
 12916 H12X        14.9680   -26.3630    -3.3200 H       102  POP96       0.0265
 12917 H12Y        14.1170   -24.8140    -3.6380 H       102  POP96       0.0265
 12918 C313        14.6790   -25.1890    -1.4650 C.3     102  POP96      -0.0531
 12919 H13X        13.5880   -24.8560    -1.4120 H       102  POP96       0.0265
 12920 H13Y        15.2190   -24.3620    -1.0300 H       102  POP96       0.0265
 12921 C314        14.9490   -26.4550    -0.7080 C.3     102  POP96      -0.0533
 12922 H14X        14.9740   -26.3450     0.4930 H       102  POP96       0.0265
 12923 H14Y        15.8110   -26.9940    -0.9640 H       102  POP96       0.0265
 12924 C315        13.7500   -27.4770    -0.8660 C.3     102  POP96      -0.0559
 12925 H15X        13.6890   -28.0400    -1.8470 H       102  POP96       0.0263
 12926 H15Y        12.8500   -26.8480    -0.7230 H       102  POP96       0.0263
 12927 C316        13.8300   -28.5050     0.2490 C.3     102  POP96      -0.0653
 12928 H16X        12.9400   -29.2660     0.2110 H       102  POP96       0.0230
 12929 H16Y        13.6360   -28.0480     1.2880 H       102  POP96       0.0230
 12930 H16Z        14.7950   -29.0300     0.4160 H       102  POP96       0.0230
 12931 N           -7.2260     8.8340   -21.4080 N.3     103  POP97       0.2385
 12932 C12         -6.0080     8.7750   -20.4750 C.3     103  POP97      -0.0064
 12933 H12A        -5.5250     9.7330   -20.4710 H       103  POP97       0.0838
 12934 H12B        -5.1800     8.1900   -20.9740 H       103  POP97       0.0838
 12935 C13         -8.2500     9.7560   -20.7870 C.3     103  POP97      -0.0417
 12936 H13A        -9.2580     9.6590   -21.3290 H       103  POP97       0.0778
 12937 H13B        -8.5520     9.5900   -19.7200 H       103  POP97       0.0778
 12938 H13C        -7.9380    10.7880   -20.8050 H       103  POP97       0.0778
 12939 C14         -6.9180     9.3790   -22.6710 C.3     103  POP97      -0.0417
 12940 H14A        -6.2630     8.7830   -23.3450 H       103  POP97       0.0778
 12941 H14B        -7.8020     9.5890   -23.2550 H       103  POP97       0.0778
 12942 H14C        -6.4300    10.3950   -22.6610 H       103  POP97       0.0778
 12943 C15         -7.8170     7.4420   -21.5520 C.3     103  POP97      -0.0417
 12944 H15A        -8.3100     7.1990   -20.6340 H       103  POP97       0.0778
 12945 H15B        -6.9540     6.8580   -21.7530 H       103  POP97       0.0778
 12946 H15C        -8.5550     7.3750   -22.3250 H       103  POP97       0.0778
 12947 C11         -6.2110     8.4760   -18.9530 C.3     103  POP97       0.0954
 12948 H11A        -6.8020     9.3780   -18.6050 H       103  POP97       0.0618
 12949 H11B        -5.1560     8.4820   -18.5360 H       103  POP97       0.0618
 12950 P           -6.1620     5.9710   -18.3810 P.3     103  POP97       0.2645
 12951 O13         -4.7600     6.1890   -18.8210 O.co2   103  POP97      -0.5105
 12952 O14         -6.9850     4.8900   -19.0090 O.co2   103  POP97      -0.5105
 12953 O12         -7.0260     7.3210   -18.6840 O.3     103  POP97      -0.3154
 12954 O11         -6.2160     5.9430   -16.7780 O.3     103  POP97      -0.3181
 12955 C1          -7.4240     6.3830   -16.1800 C.3     103  POP97       0.0845
 12956 HA          -8.2510     6.0290   -16.8210 H       103  POP97       0.0591
 12957 HB          -7.4580     7.4840   -16.0910 H       103  POP97       0.0591
 12958 C2          -7.7220     5.6720   -14.7930 C.3     103  POP97       0.1155
 12959 HS          -8.5240     6.2810   -14.3450 H       103  POP97       0.0649
 12960 O21         -6.5980     5.7540   -13.9070 O.3     103  POP97      -0.3072
 12961 C21         -6.3980     6.9120   -13.2280 C.2     103  POP97       0.2626
 12962 O22         -7.0770     7.9240   -13.4050 O.2     103  POP97      -0.2650
 12963 C22         -5.4760     6.6360   -12.0390 C.3     103  POP97       0.0332
 12964 H2R         -4.4090     6.4940   -12.3200 H       103  POP97       0.0366
 12965 H2S         -5.6910     5.5940   -11.6980 H       103  POP97       0.0366
 12966 C3          -8.2570     4.2420   -14.8280 C.3     103  POP97       0.0860
 12967 HX          -7.4780     3.5930   -15.2350 H       103  POP97       0.0593
 12968 HY          -9.1810     4.2670   -15.5390 H       103  POP97       0.0593
 12969 O31         -8.9090     3.9420   -13.5930 O.3     103  POP97      -0.3125
 12970 C31         -8.1190     3.2940   -12.7430 C.2     103  POP97       0.2622
 12971 O32         -7.0410     2.8000   -13.0100 O.2     103  POP97      -0.2650
 12972 C32         -8.9220     3.1310   -11.4280 C.3     103  POP97       0.0332
 12973 H2X         -9.9450     2.6720   -11.6790 H       103  POP97       0.0366
 12974 H2Y         -9.0640     4.0440   -10.9220 H       103  POP97       0.0366
 12975 C23         -5.6200     7.6360   -10.9260 C.3     103  POP97      -0.0441
 12976 H3R         -5.4310     7.2960    -9.9070 H       103  POP97       0.0270
 12977 H3S         -6.6080     8.0560   -10.8800 H       103  POP97       0.0270
 12978 C24         -4.5970     8.8180   -11.1410 C.3     103  POP97      -0.0526
 12979 H4R         -4.9360     9.3990   -12.0720 H       103  POP97       0.0265
 12980 H4S         -3.6110     8.4480   -11.3640 H       103  POP97       0.0265
 12981 C25         -4.5680     9.8480   -10.0050 C.3     103  POP97      -0.0530
 12982 H5R         -3.9110    10.7230   -10.3500 H       103  POP97       0.0265
 12983 H5S         -4.1520     9.3330    -9.1330 H       103  POP97       0.0265
 12984 C26         -5.9610    10.5260    -9.6930 C.3     103  POP97      -0.0528
 12985 H6R         -6.7020     9.7700    -9.3070 H       103  POP97       0.0265
 12986 H6S         -6.4160    10.9910   -10.5520 H       103  POP97       0.0265
 12987 C27         -5.6680    11.7080    -8.6820 C.3     103  POP97      -0.0496
 12988 H7R         -5.5090    12.5810    -9.2910 H       103  POP97       0.0268
 12989 H7S         -4.6520    11.4190    -8.2400 H       103  POP97       0.0268
 12990 C28         -6.7770    11.8110    -7.6660 C.3     103  POP97      -0.0348
 12991 H8R         -6.8720    10.8760    -6.9970 H       103  POP97       0.0307
 12992 H8S         -7.7460    12.0070    -8.1940 H       103  POP97       0.0307
 12993 C29         -6.5210    13.0060    -6.7780 C.2     103  POP97      -0.0879
 12994 H91         -5.8230    13.6950    -7.1060 H       103  POP97       0.0569
 12995 C210        -6.9920    13.2130    -5.5140 C.2     103  POP97      -0.0879
 12996 H101        -6.6870    14.0660    -4.9090 H       103  POP97       0.0569
 12997 C211        -7.9260    12.2500    -4.7590 C.3     103  POP97      -0.0348
 12998 H11R        -8.5580    11.5370    -5.3960 H       103  POP97       0.0307
 12999 H11S        -8.6450    12.8860    -4.2510 H       103  POP97       0.0307
 13000 C212        -7.2810    11.3570    -3.7720 C.3     103  POP97      -0.0496
 13001 H12R        -6.3390    10.9510    -4.2680 H       103  POP97       0.0268
 13002 H12S        -7.9240    10.5340    -3.5930 H       103  POP97       0.0268
 13003 C213        -7.0150    12.2010    -2.4690 C.3     103  POP97      -0.0528
 13004 H13R        -8.0150    12.3730    -2.0960 H       103  POP97       0.0265
 13005 H13S        -6.6600    13.2020    -2.7740 H       103  POP97       0.0265
 13006 C214        -6.1430    11.4710    -1.4930 C.3     103  POP97      -0.0530
 13007 H14R        -6.1180    12.2140    -0.5880 H       103  POP97       0.0265
 13008 H14S        -5.1610    11.3230    -1.9530 H       103  POP97       0.0265
 13009 C215        -6.6060    10.0870    -1.0600 C.3     103  POP97      -0.0531
 13010 H15R        -6.7320     9.4510    -1.9210 H       103  POP97       0.0265
 13011 H15S        -7.5850    10.1260    -0.6680 H       103  POP97       0.0265
 13012 C216        -5.6680     9.4310    -0.0600 C.3     103  POP97      -0.0533
 13013 H16R        -5.9410     9.7520     0.9500 H       103  POP97       0.0265
 13014 H16S        -4.6280     9.7580    -0.2350 H       103  POP97       0.0265
 13015 C217        -5.6750     7.9000    -0.1800 C.3     103  POP97      -0.0559
 13016 H17R        -5.2960     7.7350    -1.2410 H       103  POP97       0.0263
 13017 H17S        -6.7540     7.4290    -0.0620 H       103  POP97       0.0263
 13018 C218        -4.8320     7.1230     0.8760 C.3     103  POP97      -0.0653
 13019 H18R        -5.0740     7.4740     1.8880 H       103  POP97       0.0230
 13020 H18S        -3.7650     7.2090     0.6900 H       103  POP97       0.0230
 13021 H18T        -5.2580     6.0550     0.7900 H       103  POP97       0.0230
 13022 C33         -8.0960     2.2140   -10.5000 C.3     103  POP97      -0.0441
 13023 H3X         -7.2310     2.5990   -10.0850 H       103  POP97       0.0270
 13024 H3Y         -7.6330     1.2890   -11.0100 H       103  POP97       0.0270
 13025 C34         -8.9150     1.7180    -9.3320 C.3     103  POP97      -0.0526
 13026 H4X         -8.3020     1.0740    -8.6430 H       103  POP97       0.0265
 13027 H4Y         -9.6920     1.0830    -9.8290 H       103  POP97       0.0265
 13028 C35         -9.6360     2.8680    -8.6060 C.3     103  POP97      -0.0530
 13029 H5X        -10.4670     3.2220    -9.2130 H       103  POP97       0.0265
 13030 H5Y         -8.8950     3.6810    -8.5070 H       103  POP97       0.0265
 13031 C36        -10.0710     2.4920    -7.1760 C.3     103  POP97      -0.0531
 13032 H6X        -10.1230     3.4290    -6.5410 H       103  POP97       0.0265
 13033 H6Y         -9.2030     1.9780    -6.6800 H       103  POP97       0.0265
 13034 C37        -11.3300     1.7150    -7.1420 C.3     103  POP97      -0.0531
 13035 H7X        -11.2140     0.8010    -7.8060 H       103  POP97       0.0265
 13036 H7Y        -12.1670     2.4160    -7.3460 H       103  POP97       0.0265
 13037 C38        -11.5320     1.0530    -5.6920 C.3     103  POP97      -0.0531
 13038 H8X        -11.9460     1.8220    -5.0300 H       103  POP97       0.0265
 13039 H8Y        -10.5450     0.6730    -5.2730 H       103  POP97       0.0265
 13040 C39        -12.6230    -0.0600    -5.6200 C.3     103  POP97      -0.0531
 13041 H9X        -12.2830    -0.9440    -6.2250 H       103  POP97       0.0265
 13042 H9Y        -13.6170     0.2420    -6.0040 H       103  POP97       0.0265
 13043 C310       -12.7160    -0.6050    -4.1520 C.3     103  POP97      -0.0531
 13044 H10X       -12.9020     0.2510    -3.4560 H       103  POP97       0.0265
 13045 H10Y       -11.7970    -1.2420    -3.9510 H       103  POP97       0.0265
 13046 C311       -13.9340    -1.5890    -4.0740 C.3     103  POP97      -0.0531
 13047 H11X       -13.8150    -2.5310    -4.6110 H       103  POP97       0.0265
 13048 H11Y       -14.8130    -0.9890    -4.4840 H       103  POP97       0.0265
 13049 C312       -14.4220    -1.8140    -2.6100 C.3     103  POP97      -0.0531
 13050 H12X       -14.9920    -0.9090    -2.1490 H       103  POP97       0.0265
 13051 H12Y       -13.4720    -1.9090    -1.9750 H       103  POP97       0.0265
 13052 C313       -15.2410    -3.0630    -2.4470 C.3     103  POP97      -0.0531
 13053 H13X       -14.6930    -3.9920    -2.6970 H       103  POP97       0.0265
 13054 H13Y       -16.0860    -3.0540    -3.1840 H       103  POP97       0.0265
 13055 C314       -15.9160    -3.1390    -1.0810 C.3     103  POP97      -0.0533
 13056 H14X       -16.7170    -2.3700    -1.0440 H       103  POP97       0.0265
 13057 H14Y       -15.2420    -2.8980    -0.1900 H       103  POP97       0.0265
 13058 C315       -16.5710    -4.4790    -0.6710 C.3     103  POP97      -0.0559
 13059 H15X       -15.7420    -5.2690    -0.7370 H       103  POP97       0.0263
 13060 H15Y       -17.3900    -4.7100    -1.4330 H       103  POP97       0.0263
 13061 C316       -17.0730    -4.4890     0.7340 C.3     103  POP97      -0.0653
 13062 H16X       -16.3330    -3.9370     1.4680 H       103  POP97       0.0230
 13063 H16Y       -17.3130    -5.5590     1.0490 H       103  POP97       0.0230
 13064 H16Z       -18.0650    -4.0410     0.7620 H       103  POP97       0.0230
 13065 N          -20.5740    30.5270   -26.7740 N.3     104  POP98       0.2385
 13066 C12        -19.4280    29.6180   -27.0270 C.3     104  POP98      -0.0064
 13067 H12A       -19.1470    29.6780   -28.0700 H       104  POP98       0.0838
 13068 H12B       -19.7050    28.5830   -26.7960 H       104  POP98       0.0838
 13069 C13        -20.5020    31.8600   -27.3630 C.3     104  POP98      -0.0417
 13070 H13A       -21.3060    32.4450   -27.0960 H       104  POP98       0.0778
 13071 H13B       -19.5950    32.4410   -26.9810 H       104  POP98       0.0778
 13072 H13C       -20.6390    31.8400   -28.4360 H       104  POP98       0.0778
 13073 C14        -21.8160    29.9140   -27.4100 C.3     104  POP98      -0.0417
 13074 H14A       -21.5950    29.6350   -28.4290 H       104  POP98       0.0778
 13075 H14B       -22.1520    29.0330   -26.8910 H       104  POP98       0.0778
 13076 H14C       -22.5920    30.6420   -27.4040 H       104  POP98       0.0778
 13077 C15        -20.9450    30.5740   -25.3240 C.3     104  POP98      -0.0417
 13078 H15A       -21.2210    29.5700   -24.9400 H       104  POP98       0.0778
 13079 H15B       -21.6050    31.3650   -25.0460 H       104  POP98       0.0778
 13080 H15C       -20.0450    30.7600   -24.7580 H       104  POP98       0.0778
 13081 C11        -18.1610    30.0970   -26.3340 C.3     104  POP98       0.0954
 13082 H11A       -17.8520    31.1020   -26.8110 H       104  POP98       0.0618
 13083 H11B       -17.4130    29.3350   -26.6200 H       104  POP98       0.0618
 13084 P          -18.1200    28.8760   -23.9770 P.3     104  POP98       0.2645
 13085 O13        -16.9060    28.0620   -24.3710 O.co2   104  POP98      -0.5105
 13086 O14        -19.4830    28.1960   -23.9170 O.co2   104  POP98      -0.5105
 13087 O12        -18.1460    30.2460   -24.8900 O.3     104  POP98      -0.3154
 13088 O11        -17.7890    29.3590   -22.5180 O.3     104  POP98      -0.3181
 13089 C1         -17.7300    30.7050   -22.1460 C.3     104  POP98       0.0845
 13090 HA         -18.7790    31.0550   -22.1290 H       104  POP98       0.0591
 13091 HB         -17.1540    31.3190   -22.9590 H       104  POP98       0.0591
 13092 C2         -17.1130    30.7960   -20.7000 C.3     104  POP98       0.1155
 13093 HS         -17.6400    30.0030   -20.1280 H       104  POP98       0.0649
 13094 O21        -17.2390    32.1180   -20.2120 O.3     104  POP98      -0.3072
 13095 C21        -18.4750    32.3840   -19.7440 C.2     104  POP98       0.2626
 13096 O22        -19.4310    31.6080   -19.6800 O.2     104  POP98      -0.2650
 13097 C22        -18.5150    33.8460   -19.4070 C.3     104  POP98       0.0332
 13098 H2R        -19.4810    34.1410   -18.9640 H       104  POP98       0.0366
 13099 H2S        -18.4550    34.3970   -20.3430 H       104  POP98       0.0366
 13100 C3         -15.6220    30.3910   -20.6840 C.3     104  POP98       0.0860
 13101 HX         -15.2880    30.8870   -21.6320 H       104  POP98       0.0593
 13102 HY         -15.3760    29.3070   -20.9350 H       104  POP98       0.0593
 13103 O31        -14.7980    30.8420   -19.6510 O.3     104  POP98      -0.3125
 13104 C31        -15.0240    30.2770   -18.4670 C.2     104  POP98       0.2622
 13105 O32        -15.7660    29.2930   -18.3110 O.2     104  POP98      -0.2650
 13106 C32        -14.3060    30.8240   -17.3270 C.3     104  POP98       0.0332
 13107 H2X        -14.3640    31.9740   -17.3810 H       104  POP98       0.0366
 13108 H2Y        -13.2390    30.6050   -17.4240 H       104  POP98       0.0366
 13109 C23        -17.4360    34.3360   -18.3640 C.3     104  POP98      -0.0441
 13110 H3R        -17.6660    35.4180   -18.0500 H       104  POP98       0.0270
 13111 H3S        -16.3770    34.3420   -18.6730 H       104  POP98       0.0270
 13112 C24        -17.5940    33.6830   -17.0170 C.3     104  POP98      -0.0526
 13113 H4R        -17.4090    32.6180   -17.0300 H       104  POP98       0.0265
 13114 H4S        -18.7120    33.8150   -16.8720 H       104  POP98       0.0265
 13115 C25        -16.6410    34.3110   -15.9830 C.3     104  POP98      -0.0530
 13116 H5R        -16.8560    35.3330   -16.1160 H       104  POP98       0.0265
 13117 H5S        -15.6410    34.0620   -16.3150 H       104  POP98       0.0265
 13118 C26        -16.8190    33.8920   -14.5280 C.3     104  POP98      -0.0528
 13119 H6R        -16.6140    32.7140   -14.5470 H       104  POP98       0.0265
 13120 H6S        -17.8960    34.0870   -14.2530 H       104  POP98       0.0265
 13121 C27        -15.8450    34.6810   -13.6480 C.3     104  POP98      -0.0496
 13122 H7R        -16.2020    35.7240   -13.6220 H       104  POP98       0.0268
 13123 H7S        -14.7770    34.6320   -14.0480 H       104  POP98       0.0268
 13124 C28        -15.8460    34.1010   -12.2040 C.3     104  POP98      -0.0348
 13125 H8R        -15.6820    32.9350   -12.3400 H       104  POP98       0.0307
 13126 H8S        -16.8220    34.2320   -11.7570 H       104  POP98       0.0307
 13127 C29        -14.7280    34.6290   -11.3940 C.2     104  POP98      -0.0879
 13128 H91        -13.8370    34.7830   -12.0730 H       104  POP98       0.0569
 13129 C210       -14.7670    34.9990   -10.1120 C.2     104  POP98      -0.0879
 13130 H101       -13.9810    35.6990    -9.7130 H       104  POP98       0.0569
 13131 C211       -15.8860    34.8130    -9.1220 C.3     104  POP98      -0.0348
 13132 H11R       -16.9000    34.7840    -9.6420 H       104  POP98       0.0307
 13133 H11S       -15.9680    35.7300    -8.4450 H       104  POP98       0.0307
 13134 C212       -15.6510    33.6900    -8.0750 C.3     104  POP98      -0.0496
 13135 H12R       -14.7490    33.9910    -7.4270 H       104  POP98       0.0268
 13136 H12S       -15.3770    32.7220    -8.4980 H       104  POP98       0.0268
 13137 C213       -16.7890    33.4680    -7.0320 C.3     104  POP98      -0.0528
 13138 H13R       -17.7320    33.4870    -7.4610 H       104  POP98       0.0265
 13139 H13S       -16.8460    34.3050    -6.3020 H       104  POP98       0.0265
 13140 C214       -16.5190    32.1590    -6.2630 C.3     104  POP98      -0.0530
 13141 H14R       -15.5200    32.2510    -5.8140 H       104  POP98       0.0265
 13142 H14S       -16.4250    31.3380    -7.0520 H       104  POP98       0.0265
 13143 C215       -17.5320    31.6900    -5.2260 C.3     104  POP98      -0.0531
 13144 H15R       -18.5970    31.6990    -5.5760 H       104  POP98       0.0265
 13145 H15S       -17.5940    32.3280    -4.3200 H       104  POP98       0.0265
 13146 C216       -17.2230    30.2580    -4.7480 C.3     104  POP98      -0.0533
 13147 H16R       -17.1290    29.6240    -5.6810 H       104  POP98       0.0265
 13148 H16S       -18.1370    29.8260    -4.3490 H       104  POP98       0.0265
 13149 C217       -16.0270    30.0780    -3.8330 C.3     104  POP98      -0.0559
 13150 H17R       -16.2870    30.7360    -2.9880 H       104  POP98       0.0263
 13151 H17S       -15.0980    30.4050    -4.3220 H       104  POP98       0.0263
 13152 C218       -15.8350    28.5570    -3.5200 C.3     104  POP98      -0.0653
 13153 H18R       -16.7960    28.1440    -3.1130 H       104  POP98       0.0230
 13154 H18S       -14.9460    28.3270    -2.8720 H       104  POP98       0.0230
 13155 H18T       -15.6420    28.0730    -4.5110 H       104  POP98       0.0230
 13156 C33        -14.7560    30.3430   -15.9650 C.3     104  POP98      -0.0441
 13157 H3X        -14.7440    29.2870   -15.7710 H       104  POP98       0.0270
 13158 H3Y        -15.8080    30.4990   -15.7680 H       104  POP98       0.0270
 13159 C34        -13.9720    31.0620   -14.7590 C.3     104  POP98      -0.0526
 13160 H4X        -14.3780    32.0490   -14.9070 H       104  POP98       0.0265
 13161 H4Y        -12.8710    31.0320   -15.1720 H       104  POP98       0.0265
 13162 C35        -14.2050    30.5620   -13.3990 C.3     104  POP98      -0.0530
 13163 H5X        -14.1170    29.4560   -13.3120 H       104  POP98       0.0265
 13164 H5Y        -15.2120    30.8670   -13.1010 H       104  POP98       0.0265
 13165 C36        -13.2350    31.0390   -12.3010 C.3     104  POP98      -0.0531
 13166 H6X        -13.3390    32.1720   -12.1830 H       104  POP98       0.0265
 13167 H6Y        -12.2220    30.7340   -12.3960 H       104  POP98       0.0265
 13168 C37        -13.7560    30.5120   -10.9280 C.3     104  POP98      -0.0531
 13169 H7X        -13.9400    29.4290   -10.9760 H       104  POP98       0.0265
 13170 H7Y        -14.7320    31.0130   -10.6280 H       104  POP98       0.0265
 13171 C38        -12.8180    30.8570    -9.8260 C.3     104  POP98      -0.0531
 13172 H8X        -12.6440    31.9490    -9.9210 H       104  POP98       0.0265
 13173 H8Y        -11.8950    30.2530    -9.9630 H       104  POP98       0.0265
 13174 C39        -13.3320    30.4240    -8.4240 C.3     104  POP98      -0.0531
 13175 H9X        -13.7940    29.4190    -8.4000 H       104  POP98       0.0265
 13176 H9Y        -14.1350    31.1590    -8.2040 H       104  POP98       0.0265
 13177 C310       -12.3060    30.6700    -7.3890 C.3     104  POP98      -0.0531
 13178 H10X       -12.0730    31.7190    -7.5040 H       104  POP98       0.0265
 13179 H10Y       -11.4100    30.1060    -7.6720 H       104  POP98       0.0265
 13180 C311       -12.7430    30.3400    -5.9700 C.3     104  POP98      -0.0531
 13181 H11X       -13.1220    29.2590    -6.0300 H       104  POP98       0.0265
 13182 H11Y       -13.6670    30.9440    -5.7160 H       104  POP98       0.0265
 13183 C312       -11.6630    30.6230    -4.8500 C.3     104  POP98      -0.0531
 13184 H12X       -11.5990    31.7080    -4.9080 H       104  POP98       0.0265
 13185 H12Y       -10.7450    30.0370    -5.2250 H       104  POP98       0.0265
 13186 C313       -12.1950    30.2110    -3.4710 C.3     104  POP98      -0.0531
 13187 H13X       -12.6400    29.1570    -3.4100 H       104  POP98       0.0265
 13188 H13Y       -12.9760    30.9220    -3.1080 H       104  POP98       0.0265
 13189 C314       -11.0610    30.1430    -2.5000 C.3     104  POP98      -0.0533
 13190 H14X       -10.8020    31.2560    -2.2840 H       104  POP98       0.0265
 13191 H14Y       -10.2250    29.6340    -3.0350 H       104  POP98       0.0265
 13192 C315       -11.4840    29.4040    -1.2910 C.3     104  POP98      -0.0559
 13193 H15X       -11.8760    28.3280    -1.4650 H       104  POP98       0.0263
 13194 H15Y       -12.3070    29.9910    -0.8150 H       104  POP98       0.0263
 13195 C316       -10.4060    29.2120    -0.2530 C.3     104  POP98      -0.0653
 13196 H16X       -10.1820    30.1640     0.2730 H       104  POP98       0.0230
 13197 H16Y        -9.5040    28.7120    -0.7050 H       104  POP98       0.0230
 13198 H16Z       -10.7470    28.5370     0.5310 H       104  POP98       0.0230
 13199 N           22.9620   -26.1030   -19.2850 N.3     105  POP99       0.2385
 13200 C12         21.4950   -26.1560   -18.8570 C.3     105  POP99      -0.0064
 13201 H12A        21.1090   -25.2210   -18.5350 H       105  POP99       0.0838
 13202 H12B        21.4410   -26.7360   -17.9300 H       105  POP99       0.0838
 13203 C13         23.5550   -25.4270   -18.0730 C.3     105  POP99      -0.0417
 13204 H13A        23.5470   -25.9900   -17.1170 H       105  POP99       0.0778
 13205 H13B        24.6240   -25.1030   -18.2320 H       105  POP99       0.0778
 13206 H13C        23.0380   -24.5350   -17.7550 H       105  POP99       0.0778
 13207 C14         23.4560   -27.5250   -19.4830 C.3     105  POP99      -0.0417
 13208 H14A        23.6180   -28.0060   -18.5540 H       105  POP99       0.0778
 13209 H14B        22.8790   -28.1650   -20.0920 H       105  POP99       0.0778
 13210 H14C        24.4820   -27.4360   -19.8310 H       105  POP99       0.0778
 13211 C15         23.1700   -25.3430   -20.5140 C.3     105  POP99      -0.0417
 13212 H15A        24.2460   -25.0960   -20.6800 H       105  POP99       0.0778
 13213 H15B        22.6120   -24.3790   -20.4290 H       105  POP99       0.0778
 13214 H15C        22.8130   -25.8350   -21.3740 H       105  POP99       0.0778
 13215 C11         20.4890   -26.8410   -19.8640 C.3     105  POP99       0.0954
 13216 H11A        20.6100   -26.5550   -20.8710 H       105  POP99       0.0618
 13217 H11B        19.5120   -26.3730   -19.5690 H       105  POP99       0.0618
 13218 P           19.0730   -29.0610   -19.8310 P.3     105  POP99       0.2645
 13219 O13         19.3390   -30.3160   -20.5810 O.co2   105  POP99      -0.5105
 13220 O14         18.0600   -28.1270   -20.3920 O.co2   105  POP99      -0.5105
 13221 O12         20.4780   -28.2790   -19.6480 O.3     105  POP99      -0.3154
 13222 O11         18.7140   -29.4450   -18.3730 O.3     105  POP99      -0.3181
 13223 C1          19.5220   -29.0650   -17.2760 C.3     105  POP99       0.0845
 13224 HA          20.6290   -28.9520   -17.4650 H       105  POP99       0.0591
 13225 HB          19.3830   -29.8560   -16.5020 H       105  POP99       0.0591
 13226 C2          19.0060   -27.7470   -16.6040 C.3     105  POP99       0.1155
 13227 HS          19.1850   -26.7690   -17.1980 H       105  POP99       0.0649
 13228 O21         19.4170   -27.5240   -15.2290 O.3     105  POP99      -0.3072
 13229 C21         20.6960   -27.1170   -15.0970 C.2     105  POP99       0.2626
 13230 O22         21.4760   -26.8700   -16.0200 O.2     105  POP99      -0.2650
 13231 C22         21.1390   -27.0620   -13.6370 C.3     105  POP99       0.0332
 13232 H2R         20.5360   -26.2300   -13.0850 H       105  POP99       0.0366
 13233 H2S         22.2260   -26.7830   -13.5910 H       105  POP99       0.0366
 13234 C3          17.3990   -27.9380   -16.6850 C.3     105  POP99       0.0860
 13235 HX          17.2200   -29.0260   -16.4110 H       105  POP99       0.0593
 13236 HY          16.8950   -27.7540   -17.6200 H       105  POP99       0.0593
 13237 O31         16.7710   -27.1390   -15.7000 O.3     105  POP99      -0.3125
 13238 C31         16.8130   -25.8070   -15.9300 C.2     105  POP99       0.2622
 13239 O32         17.3090   -25.2800   -16.8840 O.2     105  POP99      -0.2650
 13240 C32         16.0530   -25.0780   -14.8140 C.3     105  POP99       0.0332
 13241 H2X         15.0510   -25.4350   -14.7740 H       105  POP99       0.0366
 13242 H2Y         16.0370   -23.9750   -15.2180 H       105  POP99       0.0366
 13243 C23         20.9940   -28.3890   -12.9050 C.3     105  POP99      -0.0441
 13244 H3R         20.9000   -29.3830   -13.4610 H       105  POP99       0.0270
 13245 H3S         20.0700   -28.4060   -12.1560 H       105  POP99       0.0270
 13246 C24         22.2630   -28.7100   -12.0610 C.3     105  POP99      -0.0526
 13247 H4R         22.5980   -27.7880   -11.4980 H       105  POP99       0.0265
 13248 H4S         23.0890   -28.9740   -12.7620 H       105  POP99       0.0265
 13249 C25         22.0260   -29.8130   -11.0170 C.3     105  POP99      -0.0530
 13250 H5R         21.7260   -30.7850   -11.4900 H       105  POP99       0.0265
 13251 H5S         21.2930   -29.5220   -10.3610 H       105  POP99       0.0265
 13252 C26         23.3700   -29.9990   -10.2670 C.3     105  POP99      -0.0528
 13253 H6R         23.5330   -28.9970    -9.7270 H       105  POP99       0.0265
 13254 H6S         24.1470   -29.9840   -11.0790 H       105  POP99       0.0265
 13255 C27         23.4160   -31.0490    -9.1750 C.3     105  POP99      -0.0496
 13256 H7R         23.0430   -32.0390    -9.5440 H       105  POP99       0.0268
 13257 H7S         22.5900   -30.7180    -8.4010 H       105  POP99       0.0268
 13258 C28         24.7790   -31.0920    -8.5670 C.3     105  POP99      -0.0348
 13259 H8R         24.9890   -30.2690    -7.8580 H       105  POP99       0.0307
 13260 H8S         25.5340   -31.0910    -9.4240 H       105  POP99       0.0307
 13261 C29         24.8360   -32.3790    -7.7640 C.2     105  POP99      -0.0879
 13262 H91         23.8270   -32.6000    -7.3590 H       105  POP99       0.0569
 13263 C210        25.9450   -33.1480    -7.4920 C.2     105  POP99      -0.0879
 13264 H101        25.8030   -34.0990    -7.0470 H       105  POP99       0.0569
 13265 C211        27.4000   -32.8320    -7.8010 C.3     105  POP99      -0.0348
 13266 H11R        27.5520   -31.9370    -8.4140 H       105  POP99       0.0307
 13267 H11S        27.8440   -33.6920    -8.3820 H       105  POP99       0.0307
 13268 C212        28.1240   -32.5430    -6.4380 C.3     105  POP99      -0.0496
 13269 H12R        27.4800   -31.9300    -5.8490 H       105  POP99       0.0268
 13270 H12S        29.0990   -32.0190    -6.6760 H       105  POP99       0.0268
 13271 C213        28.4100   -33.9110    -5.7330 C.3     105  POP99      -0.0528
 13272 H13R        29.3060   -34.4720    -6.1870 H       105  POP99       0.0265
 13273 H13S        27.4600   -34.5750    -5.8180 H       105  POP99       0.0265
 13274 C214        28.8920   -33.8300    -4.3300 C.3     105  POP99      -0.0530
 13275 H14R        28.0150   -33.8690    -3.5830 H       105  POP99       0.0265
 13276 H14S        29.2690   -32.7090    -4.2070 H       105  POP99       0.0265
 13277 C215        29.8870   -34.8720    -3.7900 C.3     105  POP99      -0.0531
 13278 H15R        30.7350   -34.8980    -4.5190 H       105  POP99       0.0265
 13279 H15S        29.4060   -35.9010    -3.8230 H       105  POP99       0.0265
 13280 C216        30.4650   -34.3350    -2.4800 C.3     105  POP99      -0.0533
 13281 H16R        29.6490   -34.0880    -1.7990 H       105  POP99       0.0265
 13282 H16S        30.9090   -33.3070    -2.7980 H       105  POP99       0.0265
 13283 C217        31.4800   -35.2610    -1.8250 C.3     105  POP99      -0.0559
 13284 H17R        32.1310   -35.6270    -2.7290 H       105  POP99       0.0263
 13285 H17S        30.9350   -36.1570    -1.4660 H       105  POP99       0.0263
 13286 C218        32.3040   -34.6880    -0.7430 C.3     105  POP99      -0.0653
 13287 H18R        33.0590   -35.4400    -0.3380 H       105  POP99       0.0230
 13288 H18S        31.7330   -34.2130     0.0960 H       105  POP99       0.0230
 13289 H18T        32.9060   -33.8180    -1.1520 H       105  POP99       0.0230
 13290 C33         16.8250   -25.2520   -13.4010 C.3     105  POP99      -0.0441
 13291 H3X         16.4340   -24.4390   -12.8120 H       105  POP99       0.0270
 13292 H3Y         17.8960   -25.0900   -13.6260 H       105  POP99       0.0270
 13293 C34         16.3650   -26.5780   -12.7840 C.3     105  POP99      -0.0526
 13294 H4X         16.5080   -27.4500   -13.4290 H       105  POP99       0.0265
 13295 H4Y         15.2100   -26.5980   -12.5130 H       105  POP99       0.0265
 13296 C35         17.1810   -26.9450   -11.5270 C.3     105  POP99      -0.0530
 13297 H5X         18.2020   -27.0360   -11.8870 H       105  POP99       0.0265
 13298 H5Y         16.6950   -27.8420   -11.0160 H       105  POP99       0.0265
 13299 C36         17.0820   -25.9440   -10.4540 C.3     105  POP99      -0.0531
 13300 H6X         15.9600   -25.6780   -10.2980 H       105  POP99       0.0265
 13301 H6Y         17.7060   -25.0430   -10.6400 H       105  POP99       0.0265
 13302 C37         17.3810   -26.5020    -9.0580 C.3     105  POP99      -0.0531
 13303 H7X         16.7180   -27.2590    -8.6610 H       105  POP99       0.0265
 13304 H7Y         17.2310   -25.6090    -8.3660 H       105  POP99       0.0265
 13305 C38         18.8380   -27.0310    -8.9580 C.3     105  POP99      -0.0531
 13306 H8X         19.4890   -26.4130    -9.6000 H       105  POP99       0.0265
 13307 H8Y         18.8520   -28.1030    -9.4070 H       105  POP99       0.0265
 13308 C39         19.4210   -26.9600    -7.5470 C.3     105  POP99      -0.0531
 13309 H9X         18.8120   -27.4170    -6.7890 H       105  POP99       0.0265
 13310 H9Y         19.5030   -25.8620    -7.2190 H       105  POP99       0.0265
 13311 C310        20.9090   -27.5920    -7.5460 C.3     105  POP99      -0.0531
 13312 H10X        21.5070   -26.7450    -7.9110 H       105  POP99       0.0265
 13313 H10Y        21.0520   -28.4510    -8.2040 H       105  POP99       0.0265
 13314 C311        21.3090   -27.9070    -6.0780 C.3     105  POP99      -0.0531
 13315 H11X        20.5290   -28.5380    -5.6720 H       105  POP99       0.0265
 13316 H11Y        21.2400   -26.9320    -5.5490 H       105  POP99       0.0265
 13317 C312        22.7510   -28.4250    -5.8910 C.3     105  POP99      -0.0531
 13318 H12X        23.4510   -27.5900    -6.1570 H       105  POP99       0.0265
 13319 H12Y        23.0340   -29.2360    -6.6600 H       105  POP99       0.0265
 13320 C313        22.9620   -29.0420    -4.5370 C.3     105  POP99      -0.0531
 13321 H13X        22.6230   -28.3210    -3.7220 H       105  POP99       0.0265
 13322 H13Y        24.0360   -29.2850    -4.4890 H       105  POP99       0.0265
 13323 C314        22.1260   -30.3160    -4.2620 C.3     105  POP99      -0.0533
 13324 H14X        21.1870   -29.8790    -4.0480 H       105  POP99       0.0265
 13325 H14Y        22.5020   -30.7020    -3.3560 H       105  POP99       0.0265
 13326 C315        22.1330   -31.3780    -5.3760 C.3     105  POP99      -0.0559
 13327 H15X        23.1390   -31.6160    -5.5700 H       105  POP99       0.0263
 13328 H15Y        21.7320   -30.9950    -6.3670 H       105  POP99       0.0263
 13329 C316        21.4260   -32.6090    -4.8680 C.3     105  POP99      -0.0653
 13330 H16X        20.4100   -32.2460    -4.4120 H       105  POP99       0.0230
 13331 H16Y        21.9680   -33.0610    -4.0290 H       105  POP99       0.0230
 13332 H16Z        21.3650   -33.2910    -5.6900 H       105  POP99       0.0230
 13333 N           24.9920    31.8360   -23.2940 N.3     106  POP100      0.2385
 13334 C12         26.2380    32.5580   -23.7480 C.3     106  POP100     -0.0064
 13335 H12A        27.0190    31.8030   -24.0200 H       106  POP100      0.0838
 13336 H12B        26.6370    33.0880   -22.8910 H       106  POP100      0.0838
 13337 C13         24.3090    31.1950   -24.4760 C.3     106  POP100     -0.0417
 13338 H13A        24.0460    31.9430   -25.2380 H       106  POP100      0.0778
 13339 H13B        24.9980    30.4700   -24.9830 H       106  POP100      0.0778
 13340 H13C        23.3380    30.8110   -24.2950 H       106  POP100      0.0778
 13341 C14         25.4010    30.7780   -22.3420 C.3     106  POP100     -0.0417
 13342 H14A        26.0380    31.1930   -21.5720 H       106  POP100      0.0778
 13343 H14B        24.5780    30.2740   -21.8460 H       106  POP100      0.0778
 13344 H14C        25.9550    29.9220   -22.7880 H       106  POP100      0.0778
 13345 C15         24.0030    32.8230   -22.7270 C.3     106  POP100     -0.0417
 13346 H15A        23.1350    32.3720   -22.3790 H       106  POP100      0.0778
 13347 H15B        23.8160    33.5450   -23.4590 H       106  POP100      0.0778
 13348 H15C        24.4250    33.3640   -21.8520 H       106  POP100      0.0778
 13349 C11         26.1170    33.5010   -24.9780 C.3     106  POP100      0.0954
 13350 H11A        25.4570    34.3720   -24.7380 H       106  POP100      0.0618
 13351 H11B        25.5730    32.9870   -25.8360 H       106  POP100      0.0618
 13352 P           27.8890    35.4960   -25.4880 P.3     106  POP100      0.2645
 13353 O13         26.7960    36.4080   -25.8920 O.co2   106  POP100     -0.5105
 13354 O14         29.1960    35.6030   -26.2440 O.co2   106  POP100     -0.5105
 13355 O12         27.4070    33.9850   -25.5400 O.3     106  POP100     -0.3154
 13356 O11         28.2540    35.7060   -23.9330 O.3     106  POP100     -0.3181
 13357 C1          29.3280    35.0780   -23.1990 C.3     106  POP100      0.0845
 13358 HA          30.2350    35.6930   -23.4110 H       106  POP100      0.0591
 13359 HB          29.4590    33.9640   -23.3790 H       106  POP100      0.0591
 13360 C2          29.1300    35.2970   -21.6560 C.3     106  POP100      0.1155
 13361 HS          28.3730    34.4110   -21.3810 H       106  POP100      0.0649
 13362 O21         28.6910    36.6150   -21.3250 O.3     106  POP100     -0.3072
 13363 C21         28.0100    36.7510   -20.2040 C.2     106  POP100      0.2626
 13364 O22         27.8130    35.8670   -19.4270 O.2     106  POP100     -0.2650
 13365 C22         27.6280    38.1800   -19.9280 C.3     106  POP100      0.0332
 13366 H2R         26.5970    38.3890   -20.1540 H       106  POP100      0.0366
 13367 H2S         28.2490    38.9020   -20.5700 H       106  POP100      0.0366
 13368 C3          30.5630    35.0310   -20.9800 C.3     106  POP100      0.0860
 13369 HX          31.2710    35.7300   -21.3910 H       106  POP100      0.0593
 13370 HY          30.8360    34.0480   -21.3400 H       106  POP100      0.0593
 13371 O31         30.6130    35.0290   -19.5130 O.3     106  POP100     -0.3125
 13372 C31         30.0880    34.0090   -18.9150 C.2     106  POP100      0.2622
 13373 O32         29.4690    33.0660   -19.4070 O.2     106  POP100     -0.2650
 13374 C32         30.6580    34.0050   -17.4600 C.3     106  POP100      0.0332
 13375 H2X         31.3580    34.8350   -17.3510 H       106  POP100      0.0366
 13376 H2Y         31.1610    33.0780   -17.3680 H       106  POP100      0.0366
 13377 C23         27.8810    38.6140   -18.4410 C.3     106  POP100     -0.0441
 13378 H3R         27.9280    39.7240   -18.4320 H       106  POP100      0.0270
 13379 H3S         28.8260    38.0970   -18.2080 H       106  POP100      0.0270
 13380 C24         26.7010    38.2450   -17.5580 C.3     106  POP100     -0.0526
 13381 H4R         26.1380    37.3380   -17.8020 H       106  POP100      0.0265
 13382 H4S         25.9160    39.0870   -17.6540 H       106  POP100      0.0265
 13383 C25         27.0790    38.1220   -16.0470 C.3     106  POP100     -0.0530
 13384 H5R         27.8360    37.2760   -15.9300 H       106  POP100      0.0265
 13385 H5S         26.1240    37.7060   -15.6590 H       106  POP100      0.0265
 13386 C26         27.5980    39.3620   -15.2690 C.3     106  POP100     -0.0528
 13387 H6R         28.2120    39.9640   -15.9730 H       106  POP100      0.0265
 13388 H6S         28.2870    39.0020   -14.4910 H       106  POP100      0.0265
 13389 C27         26.5630    40.4200   -14.7150 C.3     106  POP100     -0.0496
 13390 H7R         26.1420    40.9090   -15.5640 H       106  POP100      0.0268
 13391 H7S         27.1700    41.1700   -14.2580 H       106  POP100      0.0268
 13392 C28         25.5040    39.8340   -13.8630 C.3     106  POP100     -0.0348
 13393 H8R         24.8220    39.1490   -14.4560 H       106  POP100      0.0307
 13394 H8S         24.8770    40.6700   -13.6360 H       106  POP100      0.0307
 13395 C29         25.8470    39.2220   -12.4860 C.2     106  POP100     -0.0879
 13396 H91         26.6190    38.4720   -12.4640 H       106  POP100      0.0569
 13397 C210        25.3080    39.5380   -11.2490 C.2     106  POP100     -0.0879
 13398 H101        25.5790    38.9100   -10.3770 H       106  POP100      0.0569
 13399 C211        24.2200    40.6440   -10.9890 C.3     106  POP100     -0.0348
 13400 H11R        23.4270    40.2160   -10.3600 H       106  POP100      0.0307
 13401 H11S        23.7130    40.9900   -11.8650 H       106  POP100      0.0307
 13402 C212        24.7690    41.8660   -10.2320 C.3     106  POP100     -0.0496
 13403 H12R        23.9940    42.7160   -10.1970 H       106  POP100      0.0268
 13404 H12S        25.7240    42.2470   -10.7190 H       106  POP100      0.0268
 13405 C213        24.9960    41.5380    -8.7030 C.3     106  POP100     -0.0528
 13406 H13R        25.4900    40.6000    -8.6020 H       106  POP100      0.0265
 13407 H13S        23.9680    41.3850    -8.2380 H       106  POP100      0.0265
 13408 C214        25.7960    42.5420    -7.8280 C.3     106  POP100     -0.0530
 13409 H14R        25.1490    43.4140    -7.7800 H       106  POP100      0.0265
 13410 H14S        26.6490    42.7080    -8.4840 H       106  POP100      0.0265
 13411 C215        26.1140    41.9950    -6.4560 C.3     106  POP100     -0.0531
 13412 H15R        26.7130    41.0440    -6.4660 H       106  POP100      0.0265
 13413 H15S        25.2410    41.8800    -5.8520 H       106  POP100      0.0265
 13414 C216        26.9630    43.0560    -5.5990 C.3     106  POP100     -0.0533
 13415 H16R        26.2710    43.8520    -5.1870 H       106  POP100      0.0265
 13416 H16S        27.7320    43.6710    -6.2070 H       106  POP100      0.0265
 13417 C217        27.6330    42.4130    -4.3910 C.3     106  POP100     -0.0559
 13418 H17R        27.0190    41.8530    -3.6930 H       106  POP100      0.0263
 13419 H17S        27.8420    43.2200    -3.7270 H       106  POP100      0.0263
 13420 C218        28.9220    41.6460    -4.6460 C.3     106  POP100     -0.0653
 13421 H18R        29.5580    42.0770    -5.4320 H       106  POP100      0.0230
 13422 H18S        28.6260    40.6690    -5.1630 H       106  POP100      0.0230
 13423 H18T        29.5970    41.4510    -3.7440 H       106  POP100      0.0230
 13424 C33         29.4600    34.1590   -16.4580 C.3     106  POP100     -0.0441
 13425 H3X         28.6790    33.3010   -16.6180 H       106  POP100      0.0270
 13426 H3Y         28.9700    35.1520   -16.6600 H       106  POP100      0.0270
 13427 C34         29.7390    33.9830   -14.9880 C.3     106  POP100     -0.0526
 13428 H4X         28.7630    34.0610   -14.4330 H       106  POP100      0.0265
 13429 H4Y         30.4100    34.8470   -14.6260 H       106  POP100      0.0265
 13430 C35         30.3740    32.6190   -14.5830 C.3     106  POP100     -0.0530
 13431 H5X         30.9690    32.1720   -15.3900 H       106  POP100      0.0265
 13432 H5Y         29.4760    31.9330   -14.5770 H       106  POP100      0.0265
 13433 C36         31.0000    32.5930   -13.1810 C.3     106  POP100     -0.0531
 13434 H6X         30.2820    33.1800   -12.4890 H       106  POP100      0.0265
 13435 H6Y         31.9290    33.2480   -13.3500 H       106  POP100      0.0265
 13436 C37         31.3500    31.2140   -12.6770 C.3     106  POP100     -0.0531
 13437 H7X         32.1550    30.7930   -13.3390 H       106  POP100      0.0265
 13438 H7Y         30.3870    30.6300   -12.8400 H       106  POP100      0.0265
 13439 C38         31.9260    31.0900   -11.2460 C.3     106  POP100     -0.0531
 13440 H8X         32.7960    31.6880   -11.1680 H       106  POP100      0.0265
 13441 H8Y         32.2270    30.0630   -11.0610 H       106  POP100      0.0265
 13442 C39         31.0870    31.5120   -10.0650 C.3     106  POP100     -0.0531
 13443 H9X         30.0980    30.9320   -10.1450 H       106  POP100      0.0265
 13444 H9Y         30.7290    32.4880   -10.0860 H       106  POP100      0.0265
 13445 C310        31.6390    31.1480    -8.6570 C.3     106  POP100     -0.0531
 13446 H10X        32.1520    30.2380    -8.7570 H       106  POP100      0.0265
 13447 H10Y        30.8750    31.0500    -7.8600 H       106  POP100      0.0265
 13448 C311        32.4520    32.2550    -8.0300 C.3     106  POP100     -0.0531
 13449 H11X        32.0470    33.2040    -8.2920 H       106  POP100      0.0265
 13450 H11Y        33.4410    32.3320    -8.5400 H       106  POP100      0.0265
 13451 C312        32.6000    32.1970    -6.4890 C.3     106  POP100     -0.0531
 13452 H12X        31.5790    31.8700    -6.0450 H       106  POP100      0.0265
 13453 H12Y        32.9630    33.1640    -6.0670 H       106  POP100      0.0265
 13454 C313        33.5190    31.1320    -5.8990 C.3     106  POP100     -0.0531
 13455 H13X        33.1560    30.0700    -6.0710 H       106  POP100      0.0265
 13456 H13Y        33.5220    31.4190    -4.7850 H       106  POP100      0.0265
 13457 C314        34.9510    31.1730    -6.3440 C.3     106  POP100     -0.0533
 13458 H14X        35.5090    32.0010    -5.8330 H       106  POP100      0.0265
 13459 H14Y        34.9510    31.5160    -7.4540 H       106  POP100      0.0265
 13460 C315        35.7520    29.9400    -6.2140 C.3     106  POP100     -0.0559
 13461 H15X        35.3670    29.0770    -6.7760 H       106  POP100      0.0263
 13462 H15Y        35.9130    29.5770    -5.1660 H       106  POP100      0.0263
 13463 C316        37.1550    30.2110    -6.7360 C.3     106  POP100     -0.0653
 13464 H16X        37.2000    30.3350    -7.8750 H       106  POP100      0.0230
 13465 H16Y        37.9230    29.5110    -6.4080 H       106  POP100      0.0230
 13466 H16Z        37.4950    31.1790    -6.3680 H       106  POP100      0.0230
 13467 N          -13.8730    13.4090   -19.9860 N.3     107  POP101      0.2385
 13468 C12        -15.3410    13.6480   -19.6390 C.3     107  POP101     -0.0064
 13469 H12A       -15.5500    13.0600   -18.7690 H       107  POP101      0.0838
 13470 H12B       -16.0240    13.1370   -20.3390 H       107  POP101      0.0838
 13471 C13        -12.9470    13.8840   -18.9440 C.3     107  POP101     -0.0417
 13472 H13A       -11.8960    13.8090   -19.1820 H       107  POP101      0.0778
 13473 H13B       -13.1510    14.8240   -18.4780 H       107  POP101      0.0778
 13474 H13C       -12.8400    13.2140   -18.0810 H       107  POP101      0.0778
 13475 C14        -13.6370    11.9750   -20.2000 C.3     107  POP101     -0.0417
 13476 H14A       -12.6280    11.7070   -20.3890 H       107  POP101      0.0778
 13477 H14B       -14.0080    11.2520   -19.3930 H       107  POP101      0.0778
 13478 H14C       -14.0820    11.7390   -21.2080 H       107  POP101      0.0778
 13479 C15        -13.5060    14.1100   -21.2870 C.3     107  POP101     -0.0417
 13480 H15A       -13.7110    15.2250   -21.1640 H       107  POP101      0.0778
 13481 H15B       -14.1500    13.6940   -22.0660 H       107  POP101      0.0778
 13482 H15C       -12.5050    13.9720   -21.5940 H       107  POP101      0.0778
 13483 C11        -15.9420    15.0520   -19.5220 C.3     107  POP101      0.0954
 13484 H11A       -15.4770    15.5190   -18.6310 H       107  POP101      0.0618
 13485 H11B       -17.0630    14.8310   -19.2270 H       107  POP101      0.0618
 13486 P          -16.7450    16.2130   -21.7760 P.3     107  POP101      0.2645
 13487 O13        -17.8330    15.2290   -21.8780 O.co2   107  POP101     -0.5105
 13488 O14        -15.9930    16.6210   -22.9950 O.co2   107  POP101     -0.5105
 13489 O12        -15.6750    15.7290   -20.7260 O.3     107  POP101     -0.3154
 13490 O11        -17.1900    17.5310   -21.0220 O.3     107  POP101     -0.3181
 13491 C1         -16.3280    18.5540   -20.4780 C.3     107  POP101      0.0845
 13492 HA         -16.4790    19.5240   -21.0880 H       107  POP101      0.0591
 13493 HB         -15.2890    18.2080   -20.5920 H       107  POP101      0.0591
 13494 C2         -16.6690    18.7970   -19.0000 C.3     107  POP101      0.1155
 13495 HS         -16.6510    17.7970   -18.4860 H       107  POP101      0.0649
 13496 O21        -18.0400    19.3370   -19.0540 O.3     107  POP101     -0.3072
 13497 C21        -18.9770    18.5070   -18.5620 C.2     107  POP101      0.2626
 13498 O22        -18.7470    17.4540   -18.0270 O.2     107  POP101     -0.2650
 13499 C22        -20.3950    18.9900   -18.8260 C.3     107  POP101      0.0332
 13500 H2R        -20.6740    18.8330   -19.8740 H       107  POP101      0.0366
 13501 H2S        -20.4330    20.0740   -18.6380 H       107  POP101      0.0366
 13502 C3         -15.6980    19.7390   -18.2080 C.3     107  POP101      0.0860
 13503 HX         -15.7460    20.7130   -18.7280 H       107  POP101      0.0593
 13504 HY         -14.6320    19.3940   -18.3080 H       107  POP101      0.0593
 13505 O31        -16.2030    19.8780   -16.8720 O.3     107  POP101     -0.3125
 13506 C31        -15.9580    18.8420   -16.0670 C.2     107  POP101      0.2622
 13507 O32        -15.3300    17.8540   -16.3920 O.2     107  POP101     -0.2650
 13508 C32        -16.5280    19.0710   -14.6970 C.3     107  POP101      0.0332
 13509 H2X        -15.7090    19.0710   -13.9990 H       107  POP101      0.0366
 13510 H2Y        -17.2500    18.3080   -14.4660 H       107  POP101      0.0366
 13511 C23        -21.3960    18.3610   -17.8140 C.3     107  POP101     -0.0441
 13512 H3R        -21.5370    17.2740   -18.0850 H       107  POP101      0.0270
 13513 H3S        -22.4100    18.8920   -17.8940 H       107  POP101      0.0270
 13514 C24        -21.1080    18.4980   -16.3660 C.3     107  POP101     -0.0526
 13515 H4R        -21.2650    19.5280   -16.0080 H       107  POP101      0.0265
 13516 H4S        -20.0490    18.2510   -16.1190 H       107  POP101      0.0265
 13517 C25        -21.9160    17.7210   -15.2740 C.3     107  POP101     -0.0530
 13518 H5R        -21.7650    16.5930   -15.3650 H       107  POP101      0.0265
 13519 H5S        -23.0660    17.7770   -15.4570 H       107  POP101      0.0265
 13520 C26        -21.5870    18.1300   -13.8010 C.3     107  POP101     -0.0528
 13521 H6R        -21.8870    19.2480   -13.7650 H       107  POP101      0.0265
 13522 H6S        -20.4970    18.0420   -13.5420 H       107  POP101      0.0265
 13523 C27        -22.4650    17.3230   -12.7970 C.3     107  POP101     -0.0496
 13524 H7R        -22.4050    16.4400   -13.3450 H       107  POP101      0.0268
 13525 H7S        -23.4610    17.7450   -12.8460 H       107  POP101      0.0268
 13526 C28        -21.8110    17.3600   -11.3670 C.3     107  POP101     -0.0348
 13527 H8R        -20.7500    17.3390   -11.5000 H       107  POP101      0.0307
 13528 H8S        -22.2090    16.4880   -10.7810 H       107  POP101      0.0307
 13529 C29        -22.1750    18.6770   -10.6650 C.2     107  POP101     -0.0879
 13530 H91        -22.9380    19.2390   -11.1960 H       107  POP101      0.0569
 13531 C210       -21.6290    19.1000    -9.5360 C.2     107  POP101     -0.0879
 13532 H101       -21.8600    20.0880    -9.0920 H       107  POP101      0.0569
 13533 C211       -20.5720    18.3830    -8.6710 C.3     107  POP101     -0.0348
 13534 H11R       -20.0570    18.9950    -7.9190 H       107  POP101      0.0307
 13535 H11S       -19.8220    17.9710    -9.3460 H       107  POP101      0.0307
 13536 C212       -21.1120    17.2370    -7.7770 C.3     107  POP101     -0.0496
 13537 H12R       -21.2550    16.2900    -8.3320 H       107  POP101      0.0268
 13538 H12S       -22.0550    17.5760    -7.4050 H       107  POP101      0.0268
 13539 C213       -20.1760    16.9900    -6.5850 C.3     107  POP101     -0.0528
 13540 H13R       -19.6960    17.9090    -6.1390 H       107  POP101      0.0265
 13541 H13S       -19.3340    16.3740    -6.9610 H       107  POP101      0.0265
 13542 C214       -20.7740    16.1530    -5.3920 C.3     107  POP101     -0.0530
 13543 H14R       -19.8950    15.8230    -4.7320 H       107  POP101      0.0265
 13544 H14S       -21.3010    15.2430    -5.8520 H       107  POP101      0.0265
 13545 C215       -21.7900    16.8620    -4.4690 C.3     107  POP101     -0.0531
 13546 H15R       -22.5360    17.3700    -5.1600 H       107  POP101      0.0265
 13547 H15S       -21.2740    17.6630    -3.9280 H       107  POP101      0.0265
 13548 C216       -22.2870    15.8100    -3.4540 C.3     107  POP101     -0.0533
 13549 H16R       -21.4120    15.1910    -3.0110 H       107  POP101      0.0265
 13550 H16S       -22.9280    15.1890    -4.1060 H       107  POP101      0.0265
 13551 C217       -23.2030    16.3350    -2.3130 C.3     107  POP101     -0.0559
 13552 H17R       -23.4970    15.6250    -1.5430 H       107  POP101      0.0263
 13553 H17S       -24.1450    16.7100    -2.6980 H       107  POP101      0.0263
 13554 C218       -22.5680    17.4590    -1.5590 C.3     107  POP101     -0.0653
 13555 H18R       -21.4760    17.1380    -1.4030 H       107  POP101      0.0230
 13556 H18S       -22.9200    17.4540    -0.5420 H       107  POP101      0.0230
 13557 H18T       -22.6980    18.3910    -2.0830 H       107  POP101      0.0230
 13558 C33        -17.1300    20.4540   -14.3880 C.3     107  POP101     -0.0441
 13559 H3X        -18.1750    20.5620   -14.6910 H       107  POP101      0.0270
 13560 H3Y        -16.5450    21.3370   -14.8250 H       107  POP101      0.0270
 13561 C34        -17.0090    20.7350   -12.9020 C.3     107  POP101     -0.0526
 13562 H4X        -15.8900    20.8490   -12.6790 H       107  POP101      0.0265
 13563 H4Y        -17.4360    19.9250   -12.2300 H       107  POP101      0.0265
 13564 C35        -17.7110    21.9380   -12.2770 C.3     107  POP101     -0.0530
 13565 H5X        -17.3550    22.8460   -12.8620 H       107  POP101      0.0265
 13566 H5Y        -17.4020    22.1050   -11.2440 H       107  POP101      0.0265
 13567 C36        -19.1960    21.6860   -12.1750 C.3     107  POP101     -0.0531
 13568 H6X        -19.3430    20.5890   -11.9330 H       107  POP101      0.0265
 13569 H6Y        -19.6660    21.8920   -13.1920 H       107  POP101      0.0265
 13570 C37        -20.0570    22.5960   -11.2110 C.3     107  POP101     -0.0531
 13571 H7X        -21.0210    22.1210   -11.0530 H       107  POP101      0.0265
 13572 H7Y        -20.2120    23.5050   -11.8940 H       107  POP101      0.0265
 13573 C38        -19.3510    23.1420    -9.9690 C.3     107  POP101     -0.0531
 13574 H8X        -18.4610    23.8190   -10.1850 H       107  POP101      0.0265
 13575 H8Y        -18.8670    22.3010    -9.4060 H       107  POP101      0.0265
 13576 C39        -20.3300    23.9080    -8.9920 C.3     107  POP101     -0.0531
 13577 H9X        -21.2390    23.4430    -8.6680 H       107  POP101      0.0265
 13578 H9Y        -20.5820    24.8540    -9.5510 H       107  POP101      0.0265
 13579 C310       -19.6310    24.1710    -7.6950 C.3     107  POP101     -0.0531
 13580 H10X       -20.2540    24.9760    -7.2160 H       107  POP101      0.0265
 13581 H10Y       -18.6270    24.6440    -7.8540 H       107  POP101      0.0265
 13582 C311       -19.4290    23.0340    -6.7320 C.3     107  POP101     -0.0531
 13583 H11X       -18.9190    23.5000    -5.7930 H       107  POP101      0.0265
 13584 H11Y       -18.6300    22.2820    -7.0610 H       107  POP101      0.0265
 13585 C312       -20.7000    22.1870    -6.5360 C.3     107  POP101     -0.0531
 13586 H12X       -20.9110    21.7420    -7.5220 H       107  POP101      0.0265
 13587 H12Y       -21.4240    22.9180    -6.1320 H       107  POP101      0.0265
 13588 C313       -20.5270    21.0400    -5.5950 C.3     107  POP101     -0.0531
 13589 H13X       -19.4970    20.5690    -5.7210 H       107  POP101      0.0265
 13590 H13Y       -21.3110    20.2680    -5.8340 H       107  POP101      0.0265
 13591 C314       -20.7030    21.4340    -4.1310 C.3     107  POP101     -0.0533
 13592 H14X       -21.6780    21.8520    -3.8860 H       107  POP101      0.0265
 13593 H14Y       -20.0670    22.3020    -4.0010 H       107  POP101      0.0265
 13594 C315       -20.4110    20.4170    -3.0240 C.3     107  POP101     -0.0559
 13595 H15X       -19.4750    19.9770    -3.1240 H       107  POP101      0.0263
 13596 H15Y       -21.1260    19.5630    -3.2420 H       107  POP101      0.0263
 13597 C316       -20.6500    20.9730    -1.6380 C.3     107  POP101     -0.0653
 13598 H16X       -20.8590    20.1650    -0.9130 H       107  POP101      0.0230
 13599 H16Y       -21.4570    21.6830    -1.7130 H       107  POP101      0.0230
 13600 H16Z       -19.8330    21.5350    -1.2530 H       107  POP101      0.0230
 13601 N            9.8820     3.7300   -12.8750 N.3     108  POP102      0.2385
 13602 C12          9.6970     4.0380   -11.4020 C.3     108  POP102     -0.0064
 13603 H12A         8.6940     3.8110   -11.2330 H       108  POP102      0.0838
 13604 H12B         9.9200     5.0640   -11.2700 H       108  POP102      0.0838
 13605 C13          9.4480     2.3080   -13.1270 C.3     108  POP102     -0.0417
 13606 H13A         9.4520     2.0380   -14.2210 H       108  POP102      0.0778
 13607 H13B        10.1630     1.5900   -12.6670 H       108  POP102      0.0778
 13608 H13C         8.4610     1.9860   -12.8710 H       108  POP102      0.0778
 13609 C14          9.0130     4.5160   -13.7830 C.3     108  POP102     -0.0417
 13610 H14A         8.0330     4.4000   -13.5530 H       108  POP102      0.0778
 13611 H14B         9.2360     5.5910   -13.7490 H       108  POP102      0.0778
 13612 H14C         9.1600     4.2390   -14.8380 H       108  POP102      0.0778
 13613 C15         11.3450     3.8610   -13.4240 C.3     108  POP102     -0.0417
 13614 H15A        11.7030     4.8740   -13.3600 H       108  POP102      0.0778
 13615 H15B        11.3990     3.5480   -14.4490 H       108  POP102      0.0778
 13616 H15C        11.9640     3.2270   -12.8000 H       108  POP102      0.0778
 13617 C11         10.5510     3.2380   -10.3070 C.3     108  POP102      0.0954
 13618 H11A        10.1180     3.5600    -9.3070 H       108  POP102      0.0618
 13619 H11B        11.5650     3.6570   -10.3550 H       108  POP102      0.0618
 13620 P            9.7480     0.7470    -9.7760 P.3     108  POP102      0.2645
 13621 O13          9.7780    -0.5900   -10.4400 O.co2   108  POP102     -0.5105
 13622 O14          8.3900     1.2670    -9.6650 O.co2   108  POP102     -0.5105
 13623 O12         10.6230     1.8440   -10.6040 O.3     108  POP102     -0.3154
 13624 O11         10.3050     0.7220    -8.3590 O.3     108  POP102     -0.3181
 13625 C1          11.6480     0.5390    -7.9320 C.3     108  POP102      0.0845
 13626 HA          12.3010     1.3150    -8.4330 H       108  POP102      0.0591
 13627 HB          11.8850    -0.4810    -8.1820 H       108  POP102      0.0591
 13628 C2          11.9180     0.6420    -6.4130 C.3     108  POP102      0.1155
 13629 HS          11.4350    -0.1910    -5.7970 H       108  POP102      0.0649
 13630 O21         11.3240     1.9330    -5.9850 O.3     108  POP102     -0.3072
 13631 C21         10.0160     1.8990    -5.6930 C.2     108  POP102      0.2626
 13632 O22          9.3430     0.9520    -5.3380 O.2     108  POP102     -0.2650
 13633 C22          9.5660     3.4000    -5.7280 C.3     108  POP102      0.0332
 13634 H2R          9.6050     3.7420    -6.6870 H       108  POP102      0.0366
 13635 H2S         10.4490     4.0010    -5.2730 H       108  POP102      0.0366
 13636 C3          13.4240     0.5690    -6.1530 C.3     108  POP102      0.0860
 13637 HX          13.7840     1.1750    -7.0070 H       108  POP102      0.0593
 13638 HY          13.7610    -0.4320    -6.3600 H       108  POP102      0.0593
 13639 O31         13.8630     1.1240    -4.9330 O.3     108  POP102     -0.3125
 13640 C31         13.7780     0.2130    -3.9460 C.2     108  POP102      0.2622
 13641 O32         13.3730    -0.9390    -4.0810 O.2     108  POP102     -0.2650
 13642 C32         14.3840     0.7450    -2.7140 C.3     108  POP102      0.0332
 13643 H2X         13.8930     0.1800    -1.9090 H       108  POP102      0.0366
 13644 H2Y         14.1550     1.8060    -2.6750 H       108  POP102      0.0366
 13645 C23          8.2800     3.6690    -4.9560 C.3     108  POP102     -0.0441
 13646 H3R          7.5550     2.9480    -5.2700 H       108  POP102      0.0270
 13647 H3S          7.8410     4.6830    -5.1800 H       108  POP102      0.0270
 13648 C24          8.3580     3.7440    -3.4360 C.3     108  POP102     -0.0526
 13649 H4R          7.3370     3.8880    -3.0030 H       108  POP102      0.0265
 13650 H4S          8.9430     4.6660    -2.9930 H       108  POP102      0.0265
 13651 C25          8.9790     2.5130    -2.7380 C.3     108  POP102     -0.0530
 13652 H5R         10.0380     2.4300    -3.0470 H       108  POP102      0.0265
 13653 H5S          8.4380     1.7430    -3.2410 H       108  POP102      0.0265
 13654 C26          8.9130     2.5290    -1.1830 C.3     108  POP102     -0.0528
 13655 H6R          7.8860     2.3640    -0.8850 H       108  POP102      0.0265
 13656 H6S          9.1860     3.5350    -0.8510 H       108  POP102      0.0265
 13657 C27          9.6590     1.4840    -0.4460 C.3     108  POP102     -0.0496
 13658 H7R         10.7430     1.7560    -0.4570 H       108  POP102      0.0268
 13659 H7S          9.6510     0.5270    -1.0010 H       108  POP102      0.0268
 13660 C28          9.0910     1.4240     1.0080 C.3     108  POP102     -0.0348
 13661 H8R          8.0790     0.9780     0.8750 H       108  POP102      0.0307
 13662 H8S          9.0500     2.4420     1.4490 H       108  POP102      0.0307
 13663 C29          9.8570     0.4090     1.8060 C.2     108  POP102     -0.0879
 13664 H91         10.0100    -0.5440     1.3060 H       108  POP102      0.0569
 13665 C210        10.4750     0.5830     3.0020 C.2     108  POP102     -0.0879
 13666 H101        10.9860    -0.2860     3.4970 H       108  POP102      0.0569
 13667 C211        10.6020     1.8270     3.8280 C.3     108  POP102     -0.0348
 13668 H11R        10.4850     2.7760     3.3020 H       108  POP102      0.0307
 13669 H11S        11.6920     2.0650     4.0750 H       108  POP102      0.0307
 13670 C212         9.8430     1.9160     5.1260 C.3     108  POP102     -0.0496
 13671 H12R         8.7330     2.0400     5.0400 H       108  POP102      0.0268
 13672 H12S        10.1400     2.8660     5.5960 H       108  POP102      0.0268
 13673 C213         9.9300     0.8120     6.1920 C.3     108  POP102     -0.0528
 13674 H13R         9.4630    -0.0930     5.8160 H       108  POP102      0.0265
 13675 H13S         9.4140     1.0830     7.0970 H       108  POP102      0.0265
 13676 C214        11.3780     0.3970     6.5030 C.3     108  POP102     -0.0530
 13677 H14R        12.1080     1.2180     6.6980 H       108  POP102      0.0265
 13678 H14S        11.8070    -0.0820     5.5970 H       108  POP102      0.0265
 13679 C215        11.4600    -0.5970     7.7350 C.3     108  POP102     -0.0531
 13680 H15R        12.5480    -0.8870     7.8040 H       108  POP102      0.0265
 13681 H15S        11.0240    -1.5200     7.3180 H       108  POP102      0.0265
 13682 C216        10.8420    -0.3240     9.0860 C.3     108  POP102     -0.0533
 13683 H16R         9.7610    -0.2810     8.8970 H       108  POP102      0.0265
 13684 H16S        11.2240     0.6170     9.5690 H       108  POP102      0.0265
 13685 C217        10.8950    -1.5400    10.0020 C.3     108  POP102     -0.0559
 13686 H17R        11.9280    -1.6610    10.2460 H       108  POP102      0.0263
 13687 H17S        10.5160    -2.4410     9.4790 H       108  POP102      0.0263
 13688 C218        10.0150    -1.3040    11.1830 C.3     108  POP102     -0.0653
 13689 H18R         8.8570    -1.5480    11.0550 H       108  POP102      0.0230
 13690 H18S        10.1300    -0.2630    11.5830 H       108  POP102      0.0230
 13691 H18T        10.1400    -2.0030    12.0860 H       108  POP102      0.0230
 13692 C33         15.9250     0.5970    -2.5570 C.3     108  POP102     -0.0441
 13693 H3X         16.2480     1.2730    -1.7370 H       108  POP102      0.0270
 13694 H3Y         16.3020     1.0010    -3.5420 H       108  POP102      0.0270
 13695 C34         16.3290    -0.7870    -2.3380 C.3     108  POP102     -0.0526
 13696 H4X         16.0340    -1.5850    -3.1120 H       108  POP102      0.0265
 13697 H4Y         15.8050    -1.0670    -1.3300 H       108  POP102      0.0265
 13698 C35         17.8460    -0.8550    -2.0530 C.3     108  POP102     -0.0530
 13699 H5X         18.2030    -1.7760    -1.6900 H       108  POP102      0.0265
 13700 H5Y         18.1200    -0.0720    -1.2080 H       108  POP102      0.0265
 13701 C36         18.6960    -0.6830    -3.3270 C.3     108  POP102     -0.0531
 13702 H6X         18.2920     0.2710    -3.8900 H       108  POP102      0.0265
 13703 H6Y         18.6350    -1.5240    -4.0110 H       108  POP102      0.0265
 13704 C37         20.1750    -0.4870    -3.0460 C.3     108  POP102     -0.0531
 13705 H7X         20.4630    -1.4590    -2.5610 H       108  POP102      0.0265
 13706 H7Y         20.4580     0.3530    -2.3940 H       108  POP102      0.0265
 13707 C38         20.9580    -0.3120    -4.3820 C.3     108  POP102     -0.0531
 13708 H8X         20.4810     0.5720    -5.0170 H       108  POP102      0.0265
 13709 H8Y         20.8510    -1.2280    -4.9670 H       108  POP102      0.0265
 13710 C39         22.4100     0.0070    -4.1590 C.3     108  POP102     -0.0531
 13711 H9X         22.4400     0.7290    -3.3320 H       108  POP102      0.0265
 13712 H9Y         22.8860     0.5410    -5.0020 H       108  POP102      0.0265
 13713 C310        23.1770    -1.3780    -3.9070 C.3     108  POP102     -0.0531
 13714 H10X        23.2530    -1.8680    -4.9060 H       108  POP102      0.0265
 13715 H10Y        22.5500    -1.9740    -3.2140 H       108  POP102      0.0265
 13716 C311        24.5590    -1.1320    -3.2850 C.3     108  POP102     -0.0531
 13717 H11X        25.1000    -2.0590    -3.2610 H       108  POP102      0.0265
 13718 H11Y        24.3230    -0.7610    -2.1690 H       108  POP102      0.0265
 13719 C312        25.5000    -0.0940    -3.9760 C.3     108  POP102     -0.0531
 13720 H12X        26.5420    -0.2140    -3.6130 H       108  POP102      0.0265
 13721 H12Y        25.2490     0.9830    -3.8130 H       108  POP102      0.0265
 13722 C313        25.6350    -0.2870    -5.4770 C.3     108  POP102     -0.0531
 13723 H13X        24.5800    -0.2220    -5.8760 H       108  POP102      0.0265
 13724 H13Y        25.9020    -1.3300    -5.7110 H       108  POP102      0.0265
 13725 C314        26.6370     0.7970    -6.1450 C.3     108  POP102     -0.0533
 13726 H14X        27.5980     0.6160    -5.5530 H       108  POP102      0.0265
 13727 H14Y        26.2680     1.8340    -5.9300 H       108  POP102      0.0265
 13728 C315        26.6010     0.5390    -7.6880 C.3     108  POP102     -0.0559
 13729 H15X        25.5360     0.3500    -7.9750 H       108  POP102      0.0263
 13730 H15Y        27.3270    -0.3040    -7.9090 H       108  POP102      0.0263
 13731 C316        27.0820     1.7370    -8.5610 C.3     108  POP102     -0.0653
 13732 H16X        26.7980     1.6310    -9.5940 H       108  POP102      0.0230
 13733 H16Y        28.1420     2.0420    -8.4000 H       108  POP102      0.0230
 13734 H16Z        26.4740     2.5660    -8.1520 H       108  POP102      0.0230
 13735 N           32.4480    21.6800   -24.0660 N.3     109  POP103      0.2385
 13736 C12         32.6050    21.8190   -22.6100 C.3     109  POP103     -0.0064
 13737 H12A        31.5900    21.6750   -22.1170 H       109  POP103      0.0838
 13738 H12B        32.6540    22.9160   -22.4690 H       109  POP103      0.0838
 13739 C13         33.7360    21.9700   -24.8240 C.3     109  POP103     -0.0417
 13740 H13A        34.3850    21.2750   -24.3540 H       109  POP103      0.0778
 13741 H13B        33.5390    21.7940   -25.8170 H       109  POP103      0.0778
 13742 H13C        34.0400    23.0140   -24.7750 H       109  POP103      0.0778
 13743 C14         31.9900    20.3380   -24.3730 C.3     109  POP103     -0.0417
 13744 H14A        32.8170    19.6730   -24.3880 H       109  POP103      0.0778
 13745 H14B        31.2640    19.9750   -23.5850 H       109  POP103      0.0778
 13746 H14C        31.5260    20.1760   -25.3720 H       109  POP103      0.0778
 13747 C15         31.4220    22.7530   -24.4770 C.3     109  POP103     -0.0417
 13748 H15A        30.4840    22.6250   -24.0510 H       109  POP103      0.0778
 13749 H15B        31.3200    22.6580   -25.5120 H       109  POP103      0.0778
 13750 H15C        31.8390    23.7170   -24.3040 H       109  POP103      0.0778
 13751 C11         33.5510    20.9490   -21.7970 C.3     109  POP103      0.0954
 13752 H11A        33.1210    19.9220   -21.7510 H       109  POP103      0.0618
 13753 H11B        33.6350    21.4210   -20.8310 H       109  POP103      0.0618
 13754 P           36.0460    20.1710   -21.8860 P.3     109  POP103      0.2645
 13755 O13         37.1810    21.0710   -22.1620 O.co2   109  POP103     -0.5105
 13756 O14         36.0490    18.8380   -22.5340 O.co2   109  POP103     -0.5105
 13757 O12         34.8100    20.9770   -22.3600 O.3     109  POP103     -0.3154
 13758 O11         35.8480    20.0420   -20.2230 O.3     109  POP103     -0.3181
 13759 C1          35.0140    18.9180   -19.8920 C.3     109  POP103      0.0845
 13760 HA          35.1900    18.0340   -20.5290 H       109  POP103      0.0591
 13761 HB          33.9200    19.1770   -19.9210 H       109  POP103      0.0591
 13762 C2          35.1860    18.3560   -18.4770 C.3     109  POP103      0.1155
 13763 HS          34.4300    17.5550   -18.2770 H       109  POP103      0.0649
 13764 O21         35.0930    19.4120   -17.4920 O.3     109  POP103     -0.3072
 13765 C21         33.8150    19.7210   -17.2830 C.2     109  POP103      0.2626
 13766 O22         32.8190    19.1500   -17.7820 O.2     109  POP103     -0.2650
 13767 C22         33.7080    20.8650   -16.2170 C.3     109  POP103      0.0332
 13768 H2R         34.2660    21.6770   -16.6610 H       109  POP103      0.0366
 13769 H2S         34.2120    20.4730   -15.3510 H       109  POP103      0.0366
 13770 C3          36.5930    17.6370   -18.2800 C.3     109  POP103      0.0860
 13771 HX          37.4610    18.3390   -18.4380 H       109  POP103      0.0593
 13772 HY          36.6310    16.9180   -19.0980 H       109  POP103      0.0593
 13773 O31         36.6410    17.0200   -16.9730 O.3     109  POP103     -0.3125
 13774 C31         36.9110    17.8340   -15.8800 C.2     109  POP103      0.2622
 13775 O32         37.3560    18.9670   -15.9330 O.2     109  POP103     -0.2650
 13776 C32         36.7430    17.0550   -14.7030 C.3     109  POP103      0.0332
 13777 H2X         36.5530    16.0090   -14.9450 H       109  POP103      0.0366
 13778 H2Y         35.8620    17.4550   -14.0980 H       109  POP103      0.0366
 13779 C23         32.3280    21.2640   -15.7540 C.3     109  POP103     -0.0441
 13780 H3R         31.6200    20.4190   -16.0630 H       109  POP103      0.0270
 13781 H3S         32.1210    22.2120   -16.3130 H       109  POP103      0.0270
 13782 C24         32.2190    21.4080   -14.2790 C.3     109  POP103     -0.0526
 13783 H4R         32.9820    22.1820   -13.9890 H       109  POP103      0.0265
 13784 H4S         32.4170    20.4720   -13.7090 H       109  POP103      0.0265
 13785 C25         30.8160    21.7760   -13.8140 C.3     109  POP103     -0.0530
 13786 H5R         30.2140    22.1080   -14.7210 H       109  POP103      0.0265
 13787 H5S         30.9860    22.4870   -12.9190 H       109  POP103      0.0265
 13788 C26         29.9880    20.6160   -13.2070 C.3     109  POP103     -0.0528
 13789 H6R         30.6750    20.0360   -12.4420 H       109  POP103      0.0265
 13790 H6S         29.6810    19.9500   -14.1000 H       109  POP103      0.0265
 13791 C27         28.6930    21.1670   -12.5110 C.3     109  POP103     -0.0496
 13792 H7R         27.8930    21.4260   -13.2670 H       109  POP103      0.0268
 13793 H7S         28.9240    22.0700   -11.9490 H       109  POP103      0.0268
 13794 C28         28.1770    20.0510   -11.6160 C.3     109  POP103     -0.0348
 13795 H8R         27.5970    20.6050   -10.7830 H       109  POP103      0.0307
 13796 H8S         29.0330    19.5350   -11.1390 H       109  POP103      0.0307
 13797 C29         27.3140    19.0670   -12.3260 C.2     109  POP103     -0.0879
 13798 H91         27.7690    18.2930   -12.8250 H       109  POP103      0.0569
 13799 C210        25.9330    19.1530   -12.4860 C.2     109  POP103     -0.0879
 13800 H101        25.5340    18.2440   -12.9890 H       109  POP103      0.0569
 13801 C211        25.0000    20.2280   -11.9480 C.3     109  POP103     -0.0348
 13802 H11R        24.4540    20.7080   -12.7870 H       109  POP103      0.0307
 13803 H11S        25.4330    21.0320   -11.2440 H       109  POP103      0.0307
 13804 C212        24.0030    19.4270   -10.9100 C.3     109  POP103     -0.0496
 13805 H12R        24.5890    18.7450   -10.2540 H       109  POP103      0.0268
 13806 H12S        23.4340    18.7470   -11.6370 H       109  POP103      0.0268
 13807 C213        23.1260    20.3510   -10.0110 C.3     109  POP103     -0.0528
 13808 H13R        22.3890    19.5970    -9.5650 H       109  POP103      0.0265
 13809 H13S        22.6990    21.0700   -10.7360 H       109  POP103      0.0265
 13810 C214        23.9140    21.2060    -8.9680 C.3     109  POP103     -0.0530
 13811 H14R        24.4890    22.0000    -9.4720 H       109  POP103      0.0265
 13812 H14S        24.5570    20.5210    -8.3680 H       109  POP103      0.0265
 13813 C215        22.8350    21.8730    -8.0340 C.3     109  POP103     -0.0531
 13814 H15R        22.5820    21.2030    -7.2860 H       109  POP103      0.0265
 13815 H15S        21.8860    22.0730    -8.6690 H       109  POP103      0.0265
 13816 C216        23.1210    23.2250    -7.4380 C.3     109  POP103     -0.0533
 13817 H16R        22.2530    23.5890    -6.9270 H       109  POP103      0.0265
 13818 H16S        23.3830    23.9510    -8.2380 H       109  POP103      0.0265
 13819 C217        24.4310    23.2950    -6.6000 C.3     109  POP103     -0.0559
 13820 H17R        25.3370    23.0890    -7.2860 H       109  POP103      0.0263
 13821 H17S        24.3310    22.5470    -5.8190 H       109  POP103      0.0263
 13822 C218        24.7020    24.6340    -5.9370 C.3     109  POP103     -0.0653
 13823 H18R        23.8010    24.8680    -5.3070 H       109  POP103      0.0230
 13824 H18S        24.9460    25.3830    -6.7550 H       109  POP103      0.0230
 13825 H18T        25.6290    24.4740    -5.3360 H       109  POP103      0.0230
 13826 C33         38.0730    17.1060   -13.8190 C.3     109  POP103     -0.0441
 13827 H3X         38.5530    18.1290   -13.7960 H       109  POP103      0.0270
 13828 H3Y         38.8260    16.5530   -14.4120 H       109  POP103      0.0270
 13829 C34         38.0160    16.4500   -12.4680 C.3     109  POP103     -0.0526
 13830 H4X         37.9090    15.3400   -12.4860 H       109  POP103      0.0265
 13831 H4Y         37.0190    16.8860   -12.0330 H       109  POP103      0.0265
 13832 C35         39.1710    16.9130   -11.6760 C.3     109  POP103     -0.0530
 13833 H5X         39.1280    18.0440   -11.6750 H       109  POP103      0.0265
 13834 H5Y         40.1770    16.5540   -12.1470 H       109  POP103      0.0265
 13835 C36         39.1920    16.4300   -10.2730 C.3     109  POP103     -0.0531
 13836 H6X         39.3000    15.3040   -10.2920 H       109  POP103      0.0265
 13837 H6Y         38.2270    16.7580    -9.8080 H       109  POP103      0.0265
 13838 C37         40.2780    17.0880    -9.4570 C.3     109  POP103     -0.0531
 13839 H7X         39.9380    18.1900    -9.4410 H       109  POP103      0.0265
 13840 H7Y         41.2860    16.9960    -9.9210 H       109  POP103      0.0265
 13841 C38         40.3160    16.5950    -8.0000 C.3     109  POP103     -0.0531
 13842 H8X         41.4100    16.8000    -7.6120 H       109  POP103      0.0265
 13843 H8Y         40.1490    15.4970    -8.0600 H       109  POP103      0.0265
 13844 C39         39.3890    17.4270    -7.0750 C.3     109  POP103     -0.0531
 13845 H9X         38.3990    17.3180    -7.5750 H       109  POP103      0.0265
 13846 H9Y         39.6020    18.5190    -7.0840 H       109  POP103      0.0265
 13847 C310        39.4230    16.7340    -5.6360 C.3     109  POP103     -0.0531
 13848 H10X        40.3560    17.0340    -5.1900 H       109  POP103      0.0265
 13849 H10Y        39.4500    15.6200    -5.7160 H       109  POP103      0.0265
 13850 C311        38.1650    17.0290    -4.7900 C.3     109  POP103     -0.0531
 13851 H11X        37.2300    17.0640    -5.3430 H       109  POP103      0.0265
 13852 H11Y        38.2520    17.9500    -4.2680 H       109  POP103      0.0265
 13853 C312        37.7370    16.0090    -3.7050 C.3     109  POP103     -0.0531
 13854 H12X        38.6430    15.7430    -3.1200 H       109  POP103      0.0265
 13855 H12Y        37.3360    15.0330    -4.0220 H       109  POP103      0.0265
 13856 C313        36.7340    16.7800    -2.7970 C.3     109  POP103     -0.0531
 13857 H13X        37.1690    17.6660    -2.3400 H       109  POP103      0.0265
 13858 H13Y        36.3440    16.0860    -2.0060 H       109  POP103      0.0265
 13859 C314        35.4360    17.1800    -3.5180 C.3     109  POP103     -0.0533
 13860 H14X        34.9730    16.5030    -4.2480 H       109  POP103      0.0265
 13861 H14Y        35.7430    18.1090    -4.0960 H       109  POP103      0.0265
 13862 C315        34.3750    17.7480    -2.5110 C.3     109  POP103     -0.0559
 13863 H15X        34.8280    18.5560    -1.9010 H       109  POP103      0.0263
 13864 H15Y        34.0390    16.9260    -1.7680 H       109  POP103      0.0263
 13865 C316        33.1840    18.2940    -3.2940 C.3     109  POP103     -0.0653
 13866 H16X        32.4710    18.7970    -2.6920 H       109  POP103      0.0230
 13867 H16Y        32.7030    17.4190    -3.7680 H       109  POP103      0.0230
 13868 H16Z        33.4430    19.0250    -4.1400 H       109  POP103      0.0230
 13869 N            3.5540   -11.7810   -23.0880 N.3     110  POP104      0.2385
 13870 C12          3.8570   -12.1410   -21.6160 C.3     110  POP104     -0.0064
 13871 H12A         2.9240   -12.0290   -20.9850 H       110  POP104      0.0838
 13872 H12B         4.4190   -11.2920   -21.2410 H       110  POP104      0.0838
 13873 C13          2.6270   -12.7800   -23.6340 C.3     110  POP104     -0.0417
 13874 H13A         2.9410   -13.8610   -23.6580 H       110  POP104      0.0778
 13875 H13B         1.6220   -12.7980   -23.0640 H       110  POP104      0.0778
 13876 H13C         2.4540   -12.5590   -24.6300 H       110  POP104      0.0778
 13877 C14          2.9470   -10.3630   -23.2190 C.3     110  POP104     -0.0417
 13878 H14A         1.8840   -10.2750   -22.8500 H       110  POP104      0.0778
 13879 H14B         3.6270    -9.7080   -22.6920 H       110  POP104      0.0778
 13880 H14C         2.8170   -10.0650   -24.2530 H       110  POP104      0.0778
 13881 C15          4.8640   -11.7750   -23.8900 C.3     110  POP104     -0.0417
 13882 H15A         5.3800   -10.8940   -23.6900 H       110  POP104      0.0778
 13883 H15B         4.6600   -11.9680   -24.9700 H       110  POP104      0.0778
 13884 H15C         5.4050   -12.5990   -23.4530 H       110  POP104      0.0778
 13885 C11          4.5360   -13.4300   -21.3510 C.3     110  POP104      0.0954
 13886 H11A         5.5440   -13.4800   -21.8760 H       110  POP104      0.0618
 13887 H11B         3.7480   -14.1630   -21.7290 H       110  POP104      0.0618
 13888 P            4.9970   -15.0950   -19.3190 P.3     110  POP104      0.2645
 13889 O13          6.0090   -15.0090   -18.2600 O.co2   110  POP104     -0.5105
 13890 O14          5.3810   -16.0980   -20.3150 O.co2   110  POP104     -0.5105
 13891 O12          4.7400   -13.6800   -19.9710 O.3     110  POP104     -0.3154
 13892 O11          3.5100   -15.4560   -18.6900 O.3     110  POP104     -0.3181
 13893 C1           2.8380   -14.5400   -17.9000 C.3     110  POP104      0.0845
 13894 HA           2.1230   -14.0320   -18.6230 H       110  POP104      0.0591
 13895 HB           3.5410   -13.7360   -17.4420 H       110  POP104      0.0591
 13896 C2           2.1090   -15.3050   -16.7440 C.3     110  POP104      0.1155
 13897 HS           1.6970   -14.5440   -16.0350 H       110  POP104      0.0649
 13898 O21          2.9670   -16.2850   -16.1610 O.3     110  POP104     -0.3072
 13899 C21          3.8440   -15.6980   -15.3260 C.2     110  POP104      0.2626
 13900 O22          3.7120   -14.5700   -14.7890 O.2     110  POP104     -0.2650
 13901 C22          5.1710   -16.4280   -15.1550 C.3     110  POP104      0.0332
 13902 H2R          5.7500   -16.2950   -16.1110 H       110  POP104      0.0366
 13903 H2S          4.9250   -17.5310   -15.0280 H       110  POP104      0.0366
 13904 C3           0.7460   -15.8620   -17.1990 C.3     110  POP104      0.0860
 13905 HX           0.9040   -16.3770   -18.1640 H       110  POP104      0.0593
 13906 HY           0.0500   -15.1190   -17.5180 H       110  POP104      0.0593
 13907 O31          0.0820   -16.6450   -16.1760 O.3     110  POP104     -0.3125
 13908 C31         -0.4310   -17.8510   -16.4540 C.2     110  POP104      0.2622
 13909 O32         -0.4330   -18.3760   -17.5720 O.2     110  POP104     -0.2650
 13910 C32         -1.0130   -18.3900   -15.1310 C.3     110  POP104      0.0332
 13911 H2X         -1.9090   -17.7900   -14.8650 H       110  POP104      0.0366
 13912 H2Y         -0.3040   -18.3150   -14.3060 H       110  POP104      0.0366
 13913 C23          5.9490   -15.7830   -14.0090 C.3     110  POP104     -0.0441
 13914 H3R          6.0330   -14.6380   -14.0660 H       110  POP104      0.0270
 13915 H3S          7.0350   -16.1200   -14.1300 H       110  POP104      0.0270
 13916 C24          5.4030   -16.2450   -12.6860 C.3     110  POP104     -0.0526
 13917 H4R          4.8580   -17.1730   -12.8170 H       110  POP104      0.0265
 13918 H4S          4.7270   -15.4400   -12.4050 H       110  POP104      0.0265
 13919 C25          6.3900   -16.2730   -11.4780 C.3     110  POP104     -0.0530
 13920 H5R          5.8690   -16.0990   -10.5060 H       110  POP104      0.0265
 13921 H5S          6.9460   -15.3270   -11.4750 H       110  POP104      0.0265
 13922 C26          7.3850   -17.4560   -11.3080 C.3     110  POP104     -0.0528
 13923 H6R          8.0660   -17.4240   -12.1770 H       110  POP104      0.0265
 13924 H6S          6.8870   -18.4400   -11.3430 H       110  POP104      0.0265
 13925 C27          8.1380   -17.3150    -9.9800 C.3     110  POP104     -0.0496
 13926 H7R          8.6010   -16.3180   -10.0010 H       110  POP104      0.0268
 13927 H7S          9.0510   -18.0220    -9.9840 H       110  POP104      0.0268
 13928 C28          7.3790   -17.6250    -8.7100 C.3     110  POP104     -0.0348
 13929 H8R          6.5380   -16.8560    -8.6110 H       110  POP104      0.0307
 13930 H8S          8.1160   -17.4150    -7.9150 H       110  POP104      0.0307
 13931 C29          6.7960   -18.9950    -8.4130 C.2     110  POP104     -0.0879
 13932 H91          5.9600   -19.3250    -9.0390 H       110  POP104      0.0569
 13933 C210         7.1750   -19.7670    -7.4150 C.2     110  POP104     -0.0879
 13934 H101         6.6880   -20.7810    -7.3310 H       110  POP104      0.0569
 13935 C211         8.1620   -19.5580    -6.3200 C.3     110  POP104     -0.0348
 13936 H11R         7.6970   -19.0810    -5.4120 H       110  POP104      0.0307
 13937 H11S         8.8560   -18.7830    -6.7090 H       110  POP104      0.0307
 13938 C212         8.9860   -20.8140    -5.9950 C.3     110  POP104     -0.0496
 13939 H12R         9.5380   -21.2280    -6.8880 H       110  POP104      0.0268
 13940 H12S         8.2650   -21.5760    -5.6670 H       110  POP104      0.0268
 13941 C213         9.9250   -20.7180    -4.7630 C.3     110  POP104     -0.0528
 13942 H13R         9.2660   -20.9490    -3.8900 H       110  POP104      0.0265
 13943 H13S        10.2940   -19.7460    -4.6480 H       110  POP104      0.0265
 13944 C214        11.0660   -21.7370    -4.6840 C.3     110  POP104     -0.0530
 13945 H14R        11.2760   -21.8910    -5.7610 H       110  POP104      0.0265
 13946 H14S        10.5250   -22.5970    -4.2710 H       110  POP104      0.0265
 13947 C215        12.1660   -21.2490    -3.8200 C.3     110  POP104     -0.0531
 13948 H15R        12.3680   -20.2650    -4.2540 H       110  POP104      0.0265
 13949 H15S        13.0580   -21.9290    -3.8950 H       110  POP104      0.0265
 13950 C216        11.7270   -21.1680    -2.3170 C.3     110  POP104     -0.0533
 13951 H16R        10.9090   -21.8930    -2.1240 H       110  POP104      0.0265
 13952 H16S        11.3120   -20.1890    -2.2860 H       110  POP104      0.0265
 13953 C217        12.7500   -21.3330    -1.2210 C.3     110  POP104     -0.0559
 13954 H17R        13.6120   -20.7770    -1.6200 H       110  POP104      0.0263
 13955 H17S        13.0330   -22.4200    -1.1100 H       110  POP104      0.0263
 13956 C218        12.3340   -20.7510     0.0940 C.3     110  POP104     -0.0653
 13957 H18R        12.1530   -19.7160    -0.0280 H       110  POP104      0.0230
 13958 H18S        13.2420   -20.8130     0.7990 H       110  POP104      0.0230
 13959 H18T        11.4150   -21.3420     0.3990 H       110  POP104      0.0230
 13960 C33         -1.4160   -19.8630   -15.1550 C.3     110  POP104     -0.0441
 13961 H3X         -0.6250   -20.4890   -15.6650 H       110  POP104      0.0270
 13962 H3Y         -2.3670   -19.9790   -15.7130 H       110  POP104      0.0270
 13963 C34         -1.5060   -20.5320   -13.7560 C.3     110  POP104     -0.0526
 13964 H4X         -0.5460   -20.6240   -13.2740 H       110  POP104      0.0265
 13965 H4Y         -1.8570   -21.5740   -13.9930 H       110  POP104      0.0265
 13966 C35         -2.5090   -19.8280   -12.8560 C.3     110  POP104     -0.0530
 13967 H5X         -3.4560   -19.8290   -13.4090 H       110  POP104      0.0265
 13968 H5Y         -2.1720   -18.7940   -12.6150 H       110  POP104      0.0265
 13969 C36         -2.7120   -20.5480   -11.5380 C.3     110  POP104     -0.0531
 13970 H6X         -2.6940   -21.6970   -11.7550 H       110  POP104      0.0265
 13971 H6Y         -3.7510   -20.3680   -11.2270 H       110  POP104      0.0265
 13972 C37         -1.6420   -20.2940   -10.4960 C.3     110  POP104     -0.0531
 13973 H7X         -1.9120   -19.1920   -10.2190 H       110  POP104      0.0265
 13974 H7Y         -0.6120   -20.3370   -10.8380 H       110  POP104      0.0265
 13975 C38         -1.7860   -21.1360    -9.1860 C.3     110  POP104     -0.0531
 13976 H8X         -2.7900   -21.1070    -8.8140 H       110  POP104      0.0265
 13977 H8Y         -1.1190   -20.6430    -8.3780 H       110  POP104      0.0265
 13978 C39         -1.2340   -22.5040    -9.4480 C.3     110  POP104     -0.0531
 13979 H9X         -0.2100   -22.4970    -9.6940 H       110  POP104      0.0265
 13980 H9Y         -1.9330   -23.0920   -10.1850 H       110  POP104      0.0265
 13981 C310        -1.3830   -23.3150    -8.0580 C.3     110  POP104     -0.0531
 13982 H10X        -0.4290   -23.2420    -7.4740 H       110  POP104      0.0265
 13983 H10Y        -1.3700   -24.3280    -8.4380 H       110  POP104      0.0265
 13984 C311        -2.5120   -22.9660    -7.0870 C.3     110  POP104     -0.0531
 13985 H11X        -3.4870   -23.1190    -7.5560 H       110  POP104      0.0265
 13986 H11Y        -2.3910   -21.8450    -6.7090 H       110  POP104      0.0265
 13987 C312        -2.3780   -23.7290    -5.7130 C.3     110  POP104     -0.0531
 13988 H12X        -1.2870   -23.7380    -5.4460 H       110  POP104      0.0265
 13989 H12Y        -2.7040   -24.8320    -5.7380 H       110  POP104      0.0265
 13990 C313        -3.1540   -22.9880    -4.6560 C.3     110  POP104     -0.0531
 13991 H13X        -2.7100   -21.8910    -4.6900 H       110  POP104      0.0265
 13992 H13Y        -2.9100   -23.3310    -3.6630 H       110  POP104      0.0265
 13993 C314        -4.6900   -23.0110    -4.7470 C.3     110  POP104     -0.0533
 13994 H14X        -4.8710   -22.4890    -5.6930 H       110  POP104      0.0265
 13995 H14Y        -5.1060   -22.3700    -3.8650 H       110  POP104      0.0265
 13996 C315        -5.2770   -24.4230    -4.6480 C.3     110  POP104     -0.0559
 13997 H15X        -4.7530   -25.1070    -3.9360 H       110  POP104      0.0263
 13998 H15Y        -5.1400   -24.7830    -5.7180 H       110  POP104      0.0263
 13999 C316        -6.7770   -24.4630    -4.4670 C.3     110  POP104     -0.0653
 14000 H16X        -7.2550   -25.4400    -4.6170 H       110  POP104      0.0230
 14001 H16Y        -7.1950   -23.8540    -5.3040 H       110  POP104      0.0230
 14002 H16Z        -7.1750   -24.0850    -3.4850 H       110  POP104      0.0230
 14003 N           19.5880    12.7280   -16.2290 N.3     111  POP105      0.2385
 14004 C12         20.8060    12.4160   -17.1580 C.3     111  POP105     -0.0064
 14005 H12A        20.3380    11.8210   -17.8810 H       111  POP105      0.0838
 14006 H12B        21.5810    11.8890   -16.7120 H       111  POP105      0.0838
 14007 C13         19.2220    11.3690   -15.5400 C.3     111  POP105     -0.0417
 14008 H13A        18.8280    10.6740   -16.2470 H       111  POP105      0.0778
 14009 H13B        20.1440    10.9590   -14.9720 H       111  POP105      0.0778
 14010 H13C        18.4770    11.5700   -14.7690 H       111  POP105      0.0778
 14011 C14         20.0370    13.6900   -15.1310 C.3     111  POP105     -0.0417
 14012 H14A        20.6160    13.1000   -14.4620 H       111  POP105      0.0778
 14013 H14B        20.6310    14.3720   -15.5430 H       111  POP105      0.0778
 14014 H14C        19.1930    14.0260   -14.5730 H       111  POP105      0.0778
 14015 C15         18.4680    13.2150   -17.0920 C.3     111  POP105     -0.0417
 14016 H15A        17.5540    13.3340   -16.4690 H       111  POP105      0.0778
 14017 H15B        18.2120    12.6050   -17.9870 H       111  POP105      0.0778
 14018 H15C        18.6990    14.1380   -17.6280 H       111  POP105      0.0778
 14019 C11         21.4790    13.6300   -17.8500 C.3     111  POP105      0.0954
 14020 H11A        20.6660    14.1770   -18.4790 H       111  POP105      0.0618
 14021 H11B        22.1460    13.1490   -18.6450 H       111  POP105      0.0618
 14022 P           21.9870    16.1260   -17.0620 P.3     111  POP105      0.2645
 14023 O13         22.1630    16.6650   -18.4390 O.co2   111  POP105     -0.5105
 14024 O14         22.6280    16.8500   -15.9470 O.co2   111  POP105     -0.5105
 14025 O12         22.2330    14.4950   -17.0170 O.3     111  POP105     -0.3154
 14026 O11         20.4290    16.1190   -16.8770 O.3     111  POP105     -0.3181
 14027 C1          19.4420    17.0960   -17.2240 C.3     111  POP105      0.0845
 14028 HA          18.6430    16.5370   -17.6990 H       111  POP105      0.0591
 14029 HB          19.8110    17.8750   -17.9370 H       111  POP105      0.0591
 14030 C2          18.9160    17.9140   -16.0160 C.3     111  POP105      0.1155
 14031 HS          18.2280    18.8000   -16.4050 H       111  POP105      0.0649
 14032 O21         19.9130    18.4650   -15.1420 O.3     111  POP105     -0.3072
 14033 C21         20.6880    19.4330   -15.5220 C.2     111  POP105      0.2626
 14034 O22         20.6560    20.0040   -16.5640 O.2     111  POP105     -0.2650
 14035 C22         21.5940    19.6890   -14.3550 C.3     111  POP105      0.0332
 14036 H2R         22.2150    20.5200   -14.6670 H       111  POP105      0.0366
 14037 H2S         22.2060    18.7980   -14.2610 H       111  POP105      0.0366
 14038 C3          18.0210    17.0410   -15.1430 C.3     111  POP105      0.0860
 14039 HX          18.6810    16.2180   -14.7840 H       111  POP105      0.0593
 14040 HY          17.3190    16.5360   -15.8390 H       111  POP105      0.0593
 14041 O31         17.4190    17.7450   -14.0010 O.3     111  POP105     -0.3125
 14042 C31         18.1090    17.6410   -12.8320 C.2     111  POP105      0.2622
 14043 O32         19.1390    16.9750   -12.6250 O.2     111  POP105     -0.2650
 14044 C32         17.4560    18.4690   -11.7730 C.3     111  POP105      0.0332
 14045 H2X         16.2800    18.5320   -11.8730 H       111  POP105      0.0366
 14046 H2Y         17.9220    19.4920   -11.9770 H       111  POP105      0.0366
 14047 C23         20.8770    20.0270   -13.0240 C.3     111  POP105     -0.0441
 14048 H3R         21.6080    19.9620   -12.2650 H       111  POP105      0.0270
 14049 H3S         20.1460    19.1690   -12.7920 H       111  POP105      0.0270
 14050 C24         20.0830    21.3570   -13.0170 C.3     111  POP105     -0.0526
 14051 H4R         19.1890    21.2250   -12.3210 H       111  POP105      0.0265
 14052 H4S         19.6500    21.5770   -14.0500 H       111  POP105      0.0265
 14053 C25         20.8220    22.5930   -12.6680 C.3     111  POP105     -0.0530
 14054 H5R         21.6210    22.6160   -13.4430 H       111  POP105      0.0265
 14055 H5S         21.3730    22.6000   -11.6480 H       111  POP105      0.0265
 14056 C26         20.0100    23.8330   -12.8950 C.3     111  POP105     -0.0528
 14057 H6R         19.7600    23.9140   -13.9140 H       111  POP105      0.0265
 14058 H6S         20.5570    24.7480   -12.4940 H       111  POP105      0.0265
 14059 C27         18.6410    23.8740   -12.1360 C.3     111  POP105     -0.0496
 14060 H7R         18.1980    22.9080   -12.4750 H       111  POP105      0.0268
 14061 H7S         18.1410    24.7260   -12.4770 H       111  POP105      0.0268
 14062 C28         18.7680    24.0320   -10.6450 C.3     111  POP105     -0.0348
 14063 H8R         19.1180    25.0680   -10.3470 H       111  POP105      0.0307
 14064 H8S         19.6500    23.3760   -10.3160 H       111  POP105      0.0307
 14065 C29         17.4460    23.7500    -9.9310 C.2     111  POP105     -0.0879
 14066 H91         16.7440    24.5800   -10.1320 H       111  POP105      0.0569
 14067 C210        17.2120    22.7030    -9.1110 C.2     111  POP105     -0.0879
 14068 H101        16.1730    22.5330    -8.7800 H       111  POP105      0.0569
 14069 C211        18.0950    21.5620    -8.7650 C.3     111  POP105     -0.0348
 14070 H11R        18.9090    21.3700    -9.5700 H       111  POP105      0.0307
 14071 H11S        17.4770    20.6730    -8.8220 H       111  POP105      0.0307
 14072 C212        18.7880    21.6450    -7.3980 C.3     111  POP105     -0.0496
 14073 H12R        19.5140    22.4640    -7.4800 H       111  POP105      0.0268
 14074 H12S        19.4550    20.7500    -7.2560 H       111  POP105      0.0268
 14075 C213        17.7570    21.8250    -6.2530 C.3     111  POP105     -0.0528
 14076 H13R        16.8420    22.4720    -6.4520 H       111  POP105      0.0265
 14077 H13S        18.3160    22.3440    -5.4670 H       111  POP105      0.0265
 14078 C214        17.3240    20.4480    -5.6520 C.3     111  POP105     -0.0530
 14079 H14R        18.2610    19.8320    -5.4840 H       111  POP105      0.0265
 14080 H14S        16.6310    19.9390    -6.3340 H       111  POP105      0.0265
 14081 C215        16.6220    20.5360    -4.2650 C.3     111  POP105     -0.0531
 14082 H15R        15.7010    21.1760    -4.4780 H       111  POP105      0.0265
 14083 H15S        17.2530    21.2470    -3.5960 H       111  POP105      0.0265
 14084 C216        16.1900    19.1750    -3.7780 C.3     111  POP105     -0.0533
 14085 H16R        17.0550    18.5630    -3.5100 H       111  POP105      0.0265
 14086 H16S        15.6330    18.7460    -4.6580 H       111  POP105      0.0265
 14087 C217        15.3570    19.1400    -2.4810 C.3     111  POP105     -0.0559
 14088 H17R        15.0540    18.0630    -2.1450 H       111  POP105      0.0263
 14089 H17S        14.4590    19.7870    -2.6760 H       111  POP105      0.0263
 14090 C218        16.1720    19.7050    -1.3200 C.3     111  POP105     -0.0653
 14091 H18R        17.1880    19.4610    -1.4110 H       111  POP105      0.0230
 14092 H18S        15.8210    19.3760    -0.3210 H       111  POP105      0.0230
 14093 H18T        16.0490    20.8180    -1.2370 H       111  POP105      0.0230
 14094 C33         17.6570    17.9540   -10.2790 C.3     111  POP105     -0.0441
 14095 H3X         17.4460    16.9260   -10.1940 H       111  POP105      0.0270
 14096 H3Y         17.0420    18.4790    -9.5740 H       111  POP105      0.0270
 14097 C34         19.0210    18.0820    -9.6740 C.3     111  POP105     -0.0526
 14098 H4X         19.4470    19.1570    -9.5720 H       111  POP105      0.0265
 14099 H4Y         19.7140    17.3830   -10.2730 H       111  POP105      0.0265
 14100 C35         19.1650    17.4590    -8.2270 C.3     111  POP105     -0.0530
 14101 H5X         18.8400    16.3930    -8.3250 H       111  POP105      0.0265
 14102 H5Y         18.5410    18.0060    -7.5080 H       111  POP105      0.0265
 14103 C36         20.5950    17.5220    -7.6350 C.3     111  POP105     -0.0531
 14104 H6X         20.9780    18.5220    -7.4350 H       111  POP105      0.0265
 14105 H6Y         21.1670    17.0060    -8.4230 H       111  POP105      0.0265
 14106 C37         20.7120    16.6020    -6.3930 C.3     111  POP105     -0.0531
 14107 H7X         21.7410    16.2790    -6.1780 H       111  POP105      0.0265
 14108 H7Y         20.0630    15.6600    -6.5080 H       111  POP105      0.0265
 14109 C38         20.2840    17.2810    -5.1070 C.3     111  POP105     -0.0531
 14110 H8X         20.3340    16.6420    -4.1810 H       111  POP105      0.0265
 14111 H8Y         19.1840    17.5980    -5.1600 H       111  POP105      0.0265
 14112 C39         21.0800    18.5860    -4.7920 C.3     111  POP105     -0.0531
 14113 H9X         20.6770    19.2910    -5.5850 H       111  POP105      0.0265
 14114 H9Y         22.1160    18.3530    -4.9650 H       111  POP105      0.0265
 14115 C310        20.6610    19.1310    -3.4730 C.3     111  POP105     -0.0531
 14116 H10X        20.8510    18.3460    -2.6780 H       111  POP105      0.0265
 14117 H10Y        19.5580    19.4410    -3.5510 H       111  POP105      0.0265
 14118 C311        21.3320    20.4250    -3.0150 C.3     111  POP105     -0.0531
 14119 H11X        22.4350    20.2170    -3.0890 H       111  POP105      0.0265
 14120 H11Y        21.0310    20.7470    -2.0090 H       111  POP105      0.0265
 14121 C312        21.0800    21.6490    -3.9140 C.3     111  POP105     -0.0531
 14122 H12X        20.0420    21.9660    -3.8360 H       111  POP105      0.0265
 14123 H12Y        21.1960    21.3590    -4.9460 H       111  POP105      0.0265
 14124 C313        21.9840    22.8150    -3.5920 C.3     111  POP105     -0.0531
 14125 H13X        21.8020    23.6240    -4.2940 H       111  POP105      0.0265
 14126 H13Y        22.9970    22.3820    -3.7500 H       111  POP105      0.0265
 14127 C314        21.8640    23.2330    -2.1080 C.3     111  POP105     -0.0533
 14128 H14X        22.2970    22.3300    -1.5880 H       111  POP105      0.0265
 14129 H14Y        20.7900    23.2860    -1.8190 H       111  POP105      0.0265
 14130 C315        22.5990    24.5870    -1.9320 C.3     111  POP105     -0.0559
 14131 H15X        22.0020    25.2780    -2.5240 H       111  POP105      0.0263
 14132 H15Y        23.6510    24.4900    -2.3310 H       111  POP105      0.0263
 14133 C316        22.5500    25.1330    -0.4840 C.3     111  POP105     -0.0653
 14134 H16X        21.4940    25.1450    -0.0740 H       111  POP105      0.0230
 14135 H16Y        23.1070    26.1460    -0.3630 H       111  POP105      0.0230
 14136 H16Z        23.1170    24.4450     0.1690 H       111  POP105      0.0230
 14137 N           24.4710    10.3620   -19.1640 N.3     112  POP106      0.2385
 14138 C12         25.2520     9.6740   -18.1580 C.3     112  POP106     -0.0064
 14139 H12A        25.4620    10.3170   -17.2430 H       112  POP106      0.0838
 14140 H12B        26.3170     9.6130   -18.5690 H       112  POP106      0.0838
 14141 C13         24.5940     9.7750   -20.4680 C.3     112  POP106     -0.0417
 14142 H13A        24.4640     8.7200   -20.4560 H       112  POP106      0.0778
 14143 H13B        23.8910    10.2590   -21.1720 H       112  POP106      0.0778
 14144 H13C        25.6500     9.9000   -20.8500 H       112  POP106      0.0778
 14145 C14         23.0130    10.2690   -18.6710 C.3     112  POP106     -0.0417
 14146 H14A        22.8950    10.7430   -17.6820 H       112  POP106      0.0778
 14147 H14B        22.4100    10.7780   -19.3910 H       112  POP106      0.0778
 14148 H14C        22.6260     9.2330   -18.5700 H       112  POP106      0.0778
 14149 C15         24.8270    11.7410   -19.2800 C.3     112  POP106     -0.0417
 14150 H15A        24.3160    12.2080   -20.1050 H       112  POP106      0.0778
 14151 H15B        25.8620    11.8630   -19.5230 H       112  POP106      0.0778
 14152 H15C        24.6730    12.2130   -18.3670 H       112  POP106      0.0778
 14153 C11         25.0560     8.2540   -17.7750 C.3     112  POP106      0.0954
 14154 H11A        23.9840     8.1260   -17.3330 H       112  POP106      0.0618
 14155 H11B        25.7650     7.9880   -16.9660 H       112  POP106      0.0618
 14156 P           26.4170     6.6710   -19.4470 P.3     112  POP106      0.2645
 14157 O13         27.2050     7.6790   -20.1730 O.co2   112  POP106     -0.5105
 14158 O14         26.1790     5.4510   -20.2030 O.co2   112  POP106     -0.5105
 14159 O12         25.1140     7.3190   -18.8710 O.3     112  POP106     -0.3154
 14160 O11         27.2520     6.1840   -18.1810 O.3     112  POP106     -0.3181
 14161 C1          26.6570     5.1710   -17.4090 C.3     112  POP106      0.0845
 14162 HA          27.0740     4.1710   -17.6520 H       112  POP106      0.0591
 14163 HB          25.6020     4.9490   -17.5430 H       112  POP106      0.0591
 14164 C2          26.8880     5.3760   -15.8630 C.3     112  POP106      0.1155
 14165 HS          25.9620     5.8180   -15.4660 H       112  POP106      0.0649
 14166 O21         28.1260     6.0640   -15.5570 O.3     112  POP106     -0.3072
 14167 C21         27.9240     7.2530   -15.1520 C.2     112  POP106      0.2626
 14168 O22         26.7770     7.7230   -14.9210 O.2     112  POP106     -0.2650
 14169 C22         29.2010     8.0150   -14.7330 C.3     112  POP106      0.0332
 14170 H2R         29.7900     8.2520   -15.6580 H       112  POP106      0.0366
 14171 H2S         29.8520     7.2720   -14.1750 H       112  POP106      0.0366
 14172 C3          26.8830     3.9620   -15.2100 C.3     112  POP106      0.0860
 14173 HX          27.8470     3.4800   -15.5600 H       112  POP106      0.0593
 14174 HY          26.1170     3.3840   -15.6430 H       112  POP106      0.0593
 14175 O31         26.7210     3.8510   -13.7860 O.3     112  POP106     -0.3125
 14176 C31         27.8790     3.9670   -13.0850 C.2     112  POP106      0.2622
 14177 O32         28.9620     3.9880   -13.6130 O.2     112  POP106     -0.2650
 14178 C32         27.5950     4.2690   -11.6030 C.3     112  POP106      0.0332
 14179 H2X         27.4200     3.3010   -11.1080 H       112  POP106      0.0366
 14180 H2Y         26.6580     4.7880   -11.5780 H       112  POP106      0.0366
 14181 C23         28.9230     9.3360   -14.0200 C.3     112  POP106     -0.0441
 14182 H3R         28.1930     9.8610   -14.6650 H       112  POP106      0.0270
 14183 H3S         29.9010     9.9220   -14.0800 H       112  POP106      0.0270
 14184 C24         28.4430     9.1650   -12.5720 C.3     112  POP106     -0.0526
 14185 H4R         29.0810     8.5440   -11.8430 H       112  POP106      0.0265
 14186 H4S         27.5220     8.6520   -12.5510 H       112  POP106      0.0265
 14187 C25         28.0900    10.4630   -11.8520 C.3     112  POP106     -0.0530
 14188 H5R         27.2420    10.9570   -12.4020 H       112  POP106      0.0265
 14189 H5S         28.9800    11.1540   -11.8680 H       112  POP106      0.0265
 14190 C26         27.7070    10.4120   -10.3270 C.3     112  POP106     -0.0528
 14191 H6R         27.3690    11.5130   -10.0930 H       112  POP106      0.0265
 14192 H6S         28.5390    10.2230    -9.6430 H       112  POP106      0.0265
 14193 C27         26.5930     9.4390    -9.9400 C.3     112  POP106     -0.0496
 14194 H7R         26.9960     8.4520   -10.2680 H       112  POP106      0.0268
 14195 H7S         25.6130     9.6610   -10.4080 H       112  POP106      0.0268
 14196 C28         26.2790     9.4960    -8.4900 C.3     112  POP106     -0.0348
 14197 H8R         27.2560     9.2700    -7.9730 H       112  POP106      0.0307
 14198 H8S         25.5200     8.6890    -8.1730 H       112  POP106      0.0307
 14199 C29         25.7470    10.8470    -8.0530 C.2     112  POP106     -0.0879
 14200 H91         25.2920    11.4020    -8.8910 H       112  POP106      0.0569
 14201 C210        25.7410    11.3090    -6.7820 C.2     112  POP106     -0.0879
 14202 H101        25.3340    12.3480    -6.6200 H       112  POP106      0.0569
 14203 C211        26.1690    10.5100    -5.5830 C.3     112  POP106     -0.0348
 14204 H11R        26.8310    11.1540    -4.8830 H       112  POP106      0.0307
 14205 H11S        26.8340     9.6080    -5.9730 H       112  POP106      0.0307
 14206 C212        24.9760    10.0570    -4.7830 C.3     112  POP106     -0.0496
 14207 H12R        24.1980     9.6650    -5.4570 H       112  POP106      0.0268
 14208 H12S        24.4110    10.8740    -4.2270 H       112  POP106      0.0268
 14209 C213        25.2030     9.0610    -3.6140 C.3     112  POP106     -0.0528
 14210 H13R        26.0480     8.4170    -4.0490 H       112  POP106      0.0265
 14211 H13S        24.3100     8.4100    -3.5390 H       112  POP106      0.0265
 14212 C214        25.7330     9.7850    -2.3560 C.3     112  POP106     -0.0530
 14213 H14R        24.9180    10.3830    -1.9590 H       112  POP106      0.0265
 14214 H14S        26.5950    10.4130    -2.6200 H       112  POP106      0.0265
 14215 C215        26.1010     8.6880    -1.2830 C.3     112  POP106     -0.0531
 14216 H15R        27.0060     8.1920    -1.7420 H       112  POP106      0.0265
 14217 H15S        25.3060     7.8820    -1.2130 H       112  POP106      0.0265
 14218 C216        26.3900     9.2470     0.0850 C.3     112  POP106     -0.0533
 14219 H16R        26.9160     8.5210     0.6530 H       112  POP106      0.0265
 14220 H16S        25.3530     9.4620     0.4720 H       112  POP106      0.0265
 14221 C217        27.2380    10.5430     0.1180 C.3     112  POP106     -0.0559
 14222 H17R        27.2180    10.8340     1.2060 H       112  POP106      0.0263
 14223 H17S        26.7090    11.3600    -0.3370 H       112  POP106      0.0263
 14224 C218        28.6690    10.4380    -0.2940 C.3     112  POP106     -0.0653
 14225 H18R        29.3110    11.3230     0.0230 H       112  POP106      0.0230
 14226 H18S        28.7180    10.2450    -1.3910 H       112  POP106      0.0230
 14227 H18T        29.1610     9.5440     0.1980 H       112  POP106      0.0230
 14228 C33         28.6510     5.1480   -10.8390 C.3     112  POP106     -0.0441
 14229 H3X         28.7670     6.1580   -11.3400 H       112  POP106      0.0270
 14230 H3Y         29.4830     4.4900   -10.8910 H       112  POP106      0.0270
 14231 C34         28.2790     5.4590    -9.3530 C.3     112  POP106     -0.0526
 14232 H4X         28.2180     4.5250    -8.7250 H       112  POP106      0.0265
 14233 H4Y         27.2580     6.0160    -9.3860 H       112  POP106      0.0265
 14234 C35         29.2550     6.4660    -8.7300 C.3     112  POP106     -0.0530
 14235 H5X         29.2180     7.3630    -9.3520 H       112  POP106      0.0265
 14236 H5Y         30.3510     6.0730    -8.7700 H       112  POP106      0.0265
 14237 C36         28.9390     6.5630    -7.2520 C.3     112  POP106     -0.0531
 14238 H6X         28.8250     5.6020    -6.7280 H       112  POP106      0.0265
 14239 H6Y         27.9180     7.0620    -7.1930 H       112  POP106      0.0265
 14240 C37         29.7950     7.5010    -6.3300 C.3     112  POP106     -0.0531
 14241 H7X         29.7580     8.4170    -6.8970 H       112  POP106      0.0265
 14242 H7Y         30.8240     7.1330    -6.3920 H       112  POP106      0.0265
 14243 C38         29.3180     7.6020    -4.8640 C.3     112  POP106     -0.0531
 14244 H8X         29.6820     6.7810    -4.1580 H       112  POP106      0.0265
 14245 H8Y         28.2470     7.5410    -4.8180 H       112  POP106      0.0265
 14246 C39         29.7440     8.9420    -4.2260 C.3     112  POP106     -0.0531
 14247 H9X         29.2750     9.1150    -3.2750 H       112  POP106      0.0265
 14248 H9Y         29.3460     9.6480    -4.9600 H       112  POP106      0.0265
 14249 C310        31.2470     9.1610    -4.2360 C.3     112  POP106     -0.0531
 14250 H10X        31.4470    10.1510    -3.8520 H       112  POP106      0.0265
 14251 H10Y        31.6350     9.0860    -5.2750 H       112  POP106      0.0265
 14252 C311        32.0420     8.2310    -3.3780 C.3     112  POP106     -0.0531
 14253 H11X        33.0070     8.7310    -3.2890 H       112  POP106      0.0265
 14254 H11Y        32.1730     7.2110    -3.7600 H       112  POP106      0.0265
 14255 C312        31.5200     8.1840    -1.9430 C.3     112  POP106     -0.0531
 14256 H12X        30.5760     7.5370    -1.7420 H       112  POP106      0.0265
 14257 H12Y        31.2470     9.2500    -1.6790 H       112  POP106      0.0265
 14258 C313        32.4840     7.7820    -0.8080 C.3     112  POP106     -0.0531
 14259 H13X        33.3510     8.4470    -1.0400 H       112  POP106      0.0265
 14260 H13Y        32.8280     6.7210    -0.9930 H       112  POP106      0.0265
 14261 C314        31.8780     7.9700     0.5700 C.3     112  POP106     -0.0533
 14262 H14X        30.9120     7.4150     0.6420 H       112  POP106      0.0265
 14263 H14Y        31.7070     9.0590     0.7590 H       112  POP106      0.0265
 14264 C315        32.7230     7.4100     1.6760 C.3     112  POP106     -0.0559
 14265 H15X        33.8240     7.7370     1.7440 H       112  POP106      0.0263
 14266 H15Y        32.7810     6.3660     1.3870 H       112  POP106      0.0263
 14267 C316        31.9630     7.5390     3.0020 C.3     112  POP106     -0.0653
 14268 H16X        31.0380     7.0190     2.9750 H       112  POP106      0.0230
 14269 H16Y        31.7950     8.5970     3.3000 H       112  POP106      0.0230
 14270 H16Z        32.5250     7.0370     3.8070 H       112  POP106      0.0230
 14271 N           18.3230   -20.0900   -17.2140 N.3     113  POP107      0.2385
 14272 C12         19.6810   -19.4930   -16.8310 C.3     113  POP107     -0.0064
 14273 H12A        19.5500   -19.1640   -15.8440 H       113  POP107      0.0838
 14274 H12B        19.7220   -18.5340   -17.3390 H       113  POP107      0.0838
 14275 C13         17.1400   -19.2750   -16.6950 C.3     113  POP107     -0.0417
 14276 H13A        17.1330   -19.3490   -15.6370 H       113  POP107      0.0778
 14277 H13B        17.0840   -18.2420   -17.0200 H       113  POP107      0.0778
 14278 H13C        16.2450   -19.8120   -16.9250 H       113  POP107      0.0778
 14279 C14         18.1770   -20.2110   -18.7560 C.3     113  POP107     -0.0417
 14280 H14A        19.0450   -20.7400   -19.1280 H       113  POP107      0.0778
 14281 H14B        17.3780   -20.8390   -18.9760 H       113  POP107      0.0778
 14282 H14C        18.0300   -19.2650   -19.2590 H       113  POP107      0.0778
 14283 C15         18.1210   -21.4700   -16.6790 C.3     113  POP107     -0.0417
 14284 H15A        17.2900   -21.9030   -17.0940 H       113  POP107      0.0778
 14285 H15B        18.0390   -21.4700   -15.6160 H       113  POP107      0.0778
 14286 H15C        18.8820   -22.1950   -17.0010 H       113  POP107      0.0778
 14287 C11         20.9140   -20.3700   -17.0270 C.3     113  POP107      0.0954
 14288 H11A        20.7840   -21.2680   -16.3540 H       113  POP107      0.0618
 14289 H11B        21.7770   -19.8680   -16.5710 H       113  POP107      0.0618
 14290 P           21.6350   -22.1720   -18.7350 P.3     113  POP107      0.2645
 14291 O13         22.1790   -22.1640   -20.0920 O.co2   113  POP107     -0.5105
 14292 O14         20.5190   -23.0920   -18.4670 O.co2   113  POP107     -0.5105
 14293 O12         21.1860   -20.6700   -18.3950 O.3     113  POP107     -0.3154
 14294 O11         22.8230   -22.4270   -17.6820 O.3     113  POP107     -0.3181
 14295 C1          23.9720   -21.6200   -17.4840 C.3     113  POP107      0.0845
 14296 HA          23.6390   -20.5730   -17.4810 H       113  POP107      0.0591
 14297 HB          24.6850   -21.8300   -18.3200 H       113  POP107      0.0591
 14298 C2          24.6540   -21.9770   -16.1850 C.3     113  POP107      0.1155
 14299 HS          25.0200   -23.0280   -16.1760 H       113  POP107      0.0649
 14300 O21         23.7410   -21.6710   -15.0440 O.3     113  POP107     -0.3072
 14301 C21         22.9880   -22.5960   -14.5880 C.2     113  POP107      0.2626
 14302 O22         22.9000   -23.7580   -14.9810 O.2     113  POP107     -0.2650
 14303 C22         22.1490   -21.9490   -13.4940 C.3     113  POP107      0.0332
 14304 H2R         21.3650   -21.2610   -13.8700 H       113  POP107      0.0366
 14305 H2S         22.8780   -21.3950   -12.9100 H       113  POP107      0.0366
 14306 C3          25.9140   -21.0450   -16.0650 C.3     113  POP107      0.0860
 14307 HX          25.6900   -19.9600   -16.2460 H       113  POP107      0.0593
 14308 HY          26.7640   -21.2290   -16.6850 H       113  POP107      0.0593
 14309 O31         26.4840   -21.1730   -14.8080 O.3     113  POP107     -0.3125
 14310 C31         26.8910   -20.1860   -14.0910 C.2     113  POP107      0.2622
 14311 O32         26.6980   -18.9540   -14.2900 O.2     113  POP107     -0.2650
 14312 C32         27.7550   -20.6770   -12.9440 C.3     113  POP107      0.0332
 14313 H2X         28.1090   -19.8070   -12.3680 H       113  POP107      0.0366
 14314 H2Y         28.7170   -21.0560   -13.2530 H       113  POP107      0.0366
 14315 C23         21.3390   -22.9990   -12.6490 C.3     113  POP107     -0.0441
 14316 H3R         21.9080   -23.9420   -12.4850 H       113  POP107      0.0270
 14317 H3S         20.2920   -23.1510   -13.0340 H       113  POP107      0.0270
 14318 C24         21.1280   -22.4240   -11.1960 C.3     113  POP107     -0.0526
 14319 H4R         20.8640   -21.3340   -11.3060 H       113  POP107      0.0265
 14320 H4S         22.1220   -22.6170   -10.7710 H       113  POP107      0.0265
 14321 C25         20.0670   -23.2000   -10.5340 C.3     113  POP107     -0.0530
 14322 H5R         20.1780   -24.3400   -10.6530 H       113  POP107      0.0265
 14323 H5S         19.0010   -22.9900   -10.8560 H       113  POP107      0.0265
 14324 C26         20.0200   -22.9220    -9.0140 C.3     113  POP107     -0.0528
 14325 H6R         19.1160   -23.3240    -8.5460 H       113  POP107      0.0265
 14326 H6S         19.9360   -21.8850    -8.7930 H       113  POP107      0.0265
 14327 C27         21.2110   -23.4860    -8.2760 C.3     113  POP107     -0.0496
 14328 H7R         22.1330   -22.9910    -8.6800 H       113  POP107      0.0268
 14329 H7S         21.3270   -24.5270    -8.5730 H       113  POP107      0.0268
 14330 C28         21.1280   -23.1910    -6.7150 C.3     113  POP107     -0.0348
 14331 H8R         20.4200   -23.7270    -6.2300 H       113  POP107      0.0307
 14332 H8S         20.7610   -22.1500    -6.6480 H       113  POP107      0.0307
 14333 C29         22.4880   -23.3420    -6.0360 C.2     113  POP107     -0.0879
 14334 H91         22.8020   -24.4080    -5.8580 H       113  POP107      0.0569
 14335 C210        23.2450   -22.3780    -5.4990 C.2     113  POP107     -0.0879
 14336 H101        24.1330   -22.5800    -4.9910 H       113  POP107      0.0569
 14337 C211        22.8160   -20.9540    -5.5910 C.3     113  POP107     -0.0348
 14338 H11R        23.3970   -20.4520    -4.9150 H       113  POP107      0.0307
 14339 H11S        21.7040   -20.8400    -5.4550 H       113  POP107      0.0307
 14340 C212        23.2180   -20.4060    -6.9770 C.3     113  POP107     -0.0496
 14341 H12R        22.6340   -19.4680    -7.1290 H       113  POP107      0.0268
 14342 H12S        22.8770   -21.0610    -7.7960 H       113  POP107      0.0268
 14343 C213        24.7540   -20.0060    -7.0980 C.3     113  POP107     -0.0528
 14344 H13R        25.4720   -20.8770    -6.8590 H       113  POP107      0.0265
 14345 H13S        25.0800   -19.3450    -6.1720 H       113  POP107      0.0265
 14346 C214        25.2020   -19.5640    -8.4470 C.3     113  POP107     -0.0530
 14347 H14R        24.5310   -18.6720    -8.6780 H       113  POP107      0.0265
 14348 H14S        25.0350   -20.2870    -9.2310 H       113  POP107      0.0265
 14349 C215        26.6790   -19.0440    -8.4460 C.3     113  POP107     -0.0531
 14350 H15R        27.2870   -19.9200    -8.2620 H       113  POP107      0.0265
 14351 H15S        26.9400   -18.5140    -7.5450 H       113  POP107      0.0265
 14352 C216        27.2100   -18.4190    -9.7230 C.3     113  POP107     -0.0533
 14353 H16R        27.0950   -19.1080   -10.5760 H       113  POP107      0.0265
 14354 H16S        28.2880   -18.3480    -9.6660 H       113  POP107      0.0265
 14355 C217        26.4560   -17.2200   -10.2790 C.3     113  POP107     -0.0559
 14356 H17R        26.4490   -16.3700    -9.5610 H       113  POP107      0.0263
 14357 H17S        25.3650   -17.3820   -10.4390 H       113  POP107      0.0263
 14358 C218        27.2540   -16.7050   -11.4750 C.3     113  POP107     -0.0653
 14359 H18R        27.6180   -17.5050   -12.2260 H       113  POP107      0.0230
 14360 H18S        28.1630   -16.2180   -11.0720 H       113  POP107      0.0230
 14361 H18T        26.7130   -15.9160   -12.0210 H       113  POP107      0.0230
 14362 C33         27.0450   -21.6330   -11.9550 C.3     113  POP107     -0.0441
 14363 H3X         26.6290   -22.5860   -12.3530 H       113  POP107      0.0270
 14364 H3Y         26.1640   -20.9570   -11.6710 H       113  POP107      0.0270
 14365 C34         27.8230   -21.9860   -10.6430 C.3     113  POP107     -0.0526
 14366 H4X         27.0020   -22.1660    -9.8520 H       113  POP107      0.0265
 14367 H4Y         28.3170   -21.1270   -10.1250 H       113  POP107      0.0265
 14368 C35         28.6560   -23.2290   -10.7510 C.3     113  POP107     -0.0530
 14369 H5X         28.9970   -23.3740   -11.7880 H       113  POP107      0.0265
 14370 H5Y         28.0080   -24.0780   -10.5110 H       113  POP107      0.0265
 14371 C36         29.8770   -23.3040    -9.7890 C.3     113  POP107     -0.0531
 14372 H6X         29.6570   -22.5590    -8.9720 H       113  POP107      0.0265
 14373 H6Y         30.8010   -22.9940   -10.3180 H       113  POP107      0.0265
 14374 C37         30.0310   -24.6600    -9.2060 C.3     113  POP107     -0.0531
 14375 H7X         29.9540   -25.3750   -10.0360 H       113  POP107      0.0265
 14376 H7Y         29.1610   -24.7760    -8.5630 H       113  POP107      0.0265
 14377 C38         31.2490   -24.8270    -8.3130 C.3     113  POP107     -0.0531
 14378 H8X         31.1140   -24.1300    -7.4400 H       113  POP107      0.0265
 14379 H8Y         32.0910   -24.6690    -8.9500 H       113  POP107      0.0265
 14380 C39         31.3240   -26.3000    -7.7380 C.3     113  POP107     -0.0531
 14381 H9X         31.2910   -27.0660    -8.5670 H       113  POP107      0.0265
 14382 H9Y         30.4280   -26.5280    -7.0530 H       113  POP107      0.0265
 14383 C310        32.7090   -26.3680    -6.9570 C.3     113  POP107     -0.0531
 14384 H10X        32.6270   -25.7490    -6.0190 H       113  POP107      0.0265
 14385 H10Y        33.3870   -25.9300    -7.7730 H       113  POP107      0.0265
 14386 C311        33.1410   -27.7950    -6.7020 C.3     113  POP107     -0.0531
 14387 H11X        34.2640   -27.7910    -6.5640 H       113  POP107      0.0265
 14388 H11Y        32.8580   -28.3910    -7.6440 H       113  POP107      0.0265
 14389 C312        32.3570   -28.3930    -5.5420 C.3     113  POP107     -0.0531
 14390 H12X        31.3680   -27.9910    -5.6250 H       113  POP107      0.0265
 14391 H12Y        32.6780   -27.9480    -4.5380 H       113  POP107      0.0265
 14392 C313        32.3870   -29.8980    -5.4580 C.3     113  POP107     -0.0531
 14393 H13X        33.4560   -30.3700    -5.4850 H       113  POP107      0.0265
 14394 H13Y        31.8120   -30.2350    -6.3190 H       113  POP107      0.0265
 14395 C314        31.7030   -30.5630    -4.2100 C.3     113  POP107     -0.0533
 14396 H14X        31.6910   -31.6670    -4.4000 H       113  POP107      0.0265
 14397 H14Y        30.6150   -30.3930    -4.2230 H       113  POP107      0.0265
 14398 C315        32.2310   -30.1290    -2.8290 C.3     113  POP107     -0.0559
 14399 H15X        31.6910   -30.6930    -2.0500 H       113  POP107      0.0263
 14400 H15Y        32.0340   -28.9930    -2.7120 H       113  POP107      0.0263
 14401 C316        33.6280   -30.6370    -2.6550 C.3     113  POP107     -0.0653
 14402 H16X        33.6620   -31.7590    -2.6310 H       113  POP107      0.0230
 14403 H16Y        34.0860   -30.2750    -1.6800 H       113  POP107      0.0230
 14404 H16Z        34.3280   -30.2450    -3.3900 H       113  POP107      0.0230
 14405 N          -30.3620    25.0810   -23.1740 N.3     114  POP108      0.2385
 14406 C12        -29.6960    26.0630   -22.1250 C.3     114  POP108     -0.0064
 14407 H12A       -30.3010    26.1950   -21.2770 H       114  POP108      0.0838
 14408 H12B       -29.7190    27.0080   -22.6030 H       114  POP108      0.0838
 14409 C13        -31.7130    25.5570   -23.6030 C.3     114  POP108     -0.0417
 14410 H13A       -31.4610    26.5720   -23.8120 H       114  POP108      0.0778
 14411 H13B       -31.9310    25.1780   -24.6560 H       114  POP108      0.0778
 14412 H13C       -32.4130    25.4470   -22.8460 H       114  POP108      0.0778
 14413 C14        -29.5150    24.8770   -24.3970 C.3     114  POP108     -0.0417
 14414 H14A       -28.5100    24.6270   -24.0680 H       114  POP108      0.0778
 14415 H14B       -29.9540    24.1090   -25.0040 H       114  POP108      0.0778
 14416 H14C       -29.4120    25.7590   -25.0070 H       114  POP108      0.0778
 14417 C15        -30.5800    23.8630   -22.3860 C.3     114  POP108     -0.0417
 14418 H15A       -29.5840    23.4400   -22.0270 H       114  POP108      0.0778
 14419 H15B       -30.9580    23.0580   -23.0060 H       114  POP108      0.0778
 14420 H15C       -31.1900    24.0070   -21.5250 H       114  POP108      0.0778
 14421 C11        -28.2330    25.7690   -21.6560 C.3     114  POP108      0.0954
 14422 H11A       -28.1200    24.7570   -21.2320 H       114  POP108      0.0618
 14423 H11B       -28.0080    26.3740   -20.6680 H       114  POP108      0.0618
 14424 P          -26.9890    27.2390   -23.4380 P.3     114  POP108      0.2645
 14425 O13        -28.2050    27.5150   -24.2060 O.co2   114  POP108     -0.5105
 14426 O14        -25.7250    27.1020   -24.2190 O.co2   114  POP108     -0.5105
 14427 O12        -27.1900    25.8770   -22.6770 O.3     114  POP108     -0.3154
 14428 O11        -26.7260    28.3940   -22.3540 O.3     114  POP108     -0.3181
 14429 C1         -25.4950    28.7630   -21.6610 C.3     114  POP108      0.0845
 14430 HA         -25.4570    29.8640   -21.5030 H       114  POP108      0.0591
 14431 HB         -24.6640    28.5430   -22.4180 H       114  POP108      0.0591
 14432 C2         -25.2420    28.0110   -20.3630 C.3     114  POP108      0.1155
 14433 HS         -25.1810    26.8940   -20.6540 H       114  POP108      0.0649
 14434 O21        -26.3780    28.1160   -19.4360 O.3     114  POP108     -0.3072
 14435 C21        -26.4520    27.3650   -18.3480 C.2     114  POP108      0.2626
 14436 O22        -25.9040    26.2540   -18.2700 O.2     114  POP108     -0.2650
 14437 C22        -27.3500    27.9650   -17.3360 C.3     114  POP108      0.0332
 14438 H2R        -27.2070    27.4130   -16.4030 H       114  POP108      0.0366
 14439 H2S        -28.3770    27.8630   -17.5830 H       114  POP108      0.0366
 14440 C3         -23.8770    28.4650   -19.7030 C.3     114  POP108      0.0860
 14441 HX         -24.1080    29.4550   -19.2970 H       114  POP108      0.0593
 14442 HY         -23.1490    28.8310   -20.4360 H       114  POP108      0.0593
 14443 O31        -23.3880    27.5280   -18.7460 O.3     114  POP108     -0.3125
 14444 C31        -22.5240    26.6230   -19.1950 C.2     114  POP108      0.2622
 14445 O32        -22.1710    26.5430   -20.3890 O.2     114  POP108     -0.2650
 14446 C32        -21.9390    25.8640   -18.0230 C.3     114  POP108      0.0332
 14447 H2X        -22.5140    26.2300   -17.1720 H       114  POP108      0.0366
 14448 H2Y        -20.9240    26.2760   -17.9850 H       114  POP108      0.0366
 14449 C23        -27.0770    29.4760   -17.0640 C.3     114  POP108     -0.0441
 14450 H3R        -27.8700    29.9960   -17.6900 H       114  POP108      0.0270
 14451 H3S        -26.0690    29.8190   -17.3920 H       114  POP108      0.0270
 14452 C24        -27.3470    29.9110   -15.6740 C.3     114  POP108     -0.0526
 14453 H4R        -26.9820    29.1170   -14.9600 H       114  POP108      0.0265
 14454 H4S        -28.4260    29.8090   -15.4270 H       114  POP108      0.0265
 14455 C25        -26.7190    31.2110   -15.3280 C.3     114  POP108     -0.0530
 14456 H5R        -27.3260    32.0890   -15.7860 H       114  POP108      0.0265
 14457 H5S        -25.7250    31.2740   -15.8840 H       114  POP108      0.0265
 14458 C26        -26.5930    31.5090   -13.8760 C.3     114  POP108     -0.0528
 14459 H6R        -27.5120    31.2160   -13.3270 H       114  POP108      0.0265
 14460 H6S        -26.5620    32.6740   -13.7380 H       114  POP108      0.0265
 14461 C27        -25.3230    30.9250   -13.2640 C.3     114  POP108     -0.0496
 14462 H7R        -24.4510    31.1000   -13.9750 H       114  POP108      0.0268
 14463 H7S        -25.5020    29.8030   -13.3810 H       114  POP108      0.0268
 14464 C28        -24.8170    31.2650   -11.8950 C.3     114  POP108     -0.0348
 14465 H8R        -24.3410    32.2390   -11.8070 H       114  POP108      0.0307
 14466 H8S        -23.9930    30.5800   -11.5260 H       114  POP108      0.0307
 14467 C29        -26.0020    31.1690   -10.9680 C.2     114  POP108     -0.0879
 14468 H91        -26.8900    31.4630   -11.5750 H       114  POP108      0.0569
 14469 C210       -26.0630    30.8430    -9.6810 C.2     114  POP108     -0.0879
 14470 H101       -26.9950    30.7760    -9.0940 H       114  POP108      0.0569
 14471 C211       -24.9340    30.3420    -8.8850 C.3     114  POP108     -0.0348
 14472 H11R       -24.7770    31.1000    -8.0370 H       114  POP108      0.0307
 14473 H11S       -23.9910    30.1880    -9.3400 H       114  POP108      0.0307
 14474 C212       -25.2290    29.0310    -8.0640 C.3     114  POP108     -0.0496
 14475 H12R       -25.5290    28.2600    -8.7640 H       114  POP108      0.0268
 14476 H12S       -25.9050    29.1880    -7.3070 H       114  POP108      0.0268
 14477 C213       -23.9460    28.3190    -7.4890 C.3     114  POP108     -0.0528
 14478 H13R       -23.4560    29.1050    -6.7760 H       114  POP108      0.0265
 14479 H13S       -23.3290    28.0790    -8.3930 H       114  POP108      0.0265
 14480 C214       -24.3020    27.0060    -6.7820 C.3     114  POP108     -0.0530
 14481 H14R       -24.6570    26.2990    -7.5430 H       114  POP108      0.0265
 14482 H14S       -25.1470    27.2250    -6.1140 H       114  POP108      0.0265
 14483 C215       -23.0230    26.5810    -6.0000 C.3     114  POP108     -0.0531
 14484 H15R       -22.1170    26.4460    -6.6470 H       114  POP108      0.0265
 14485 H15S       -23.2970    25.5140    -5.6050 H       114  POP108      0.0265
 14486 C216       -22.7510    27.4310    -4.7210 C.3     114  POP108     -0.0533
 14487 H16R       -23.7000    27.5640    -4.1880 H       114  POP108      0.0265
 14488 H16S       -22.4480    28.5020    -4.9270 H       114  POP108      0.0265
 14489 C217       -21.6560    26.8730    -3.7600 C.3     114  POP108     -0.0559
 14490 H17R       -22.1390    25.9860    -3.2450 H       114  POP108      0.0263
 14491 H17S       -21.5300    27.5530    -2.9220 H       114  POP108      0.0263
 14492 C218       -20.4070    26.4140    -4.4160 C.3     114  POP108     -0.0653
 14493 H18R       -19.6770    26.1030    -3.6880 H       114  POP108      0.0230
 14494 H18S       -19.9590    27.2180    -4.9960 H       114  POP108      0.0230
 14495 H18T       -20.5970    25.6360    -5.1330 H       114  POP108      0.0230
 14496 C33        -22.0040    24.3210   -18.1630 C.3     114  POP108     -0.0441
 14497 H3X        -21.5200    24.1920   -19.1980 H       114  POP108      0.0270
 14498 H3Y        -23.0330    24.0600   -18.2400 H       114  POP108      0.0270
 14499 C34        -21.0960    23.5230   -17.2650 C.3     114  POP108     -0.0526
 14500 H4X        -21.5570    22.5830   -16.8870 H       114  POP108      0.0265
 14501 H4Y        -20.9250    24.0930   -16.3240 H       114  POP108      0.0265
 14502 C35        -19.7770    23.1260   -17.8600 C.3     114  POP108     -0.0530
 14503 H5X        -19.3170    23.9370   -18.3210 H       114  POP108      0.0265
 14504 H5Y        -20.0550    22.3750   -18.7080 H       114  POP108      0.0265
 14505 C36        -18.7890    22.5380   -16.9030 C.3     114  POP108     -0.0531
 14506 H6X        -18.2650    21.6860   -17.4260 H       114  POP108      0.0265
 14507 H6Y        -19.2670    22.0350   -16.0430 H       114  POP108      0.0265
 14508 C37        -17.7350    23.5040   -16.4440 C.3     114  POP108     -0.0531
 14509 H7X        -17.1290    24.0020   -17.2610 H       114  POP108      0.0265
 14510 H7Y        -17.0360    22.8560   -15.9340 H       114  POP108      0.0265
 14511 C38        -18.1490    24.5710   -15.4980 C.3     114  POP108     -0.0531
 14512 H8X        -18.5910    24.0330   -14.6720 H       114  POP108      0.0265
 14513 H8Y        -18.8040    25.2900   -16.0070 H       114  POP108      0.0265
 14514 C39        -16.9250    25.3800   -15.0660 C.3     114  POP108     -0.0531
 14515 H9X        -16.5720    26.0430   -15.8920 H       114  POP108      0.0265
 14516 H9Y        -16.1660    24.5910   -14.7940 H       114  POP108      0.0265
 14517 C310       -17.1660    26.1220   -13.7370 C.3     114  POP108     -0.0531
 14518 H10X       -17.4950    25.3220   -13.0550 H       114  POP108      0.0265
 14519 H10Y       -18.0710    26.7670   -13.8500 H       114  POP108      0.0265
 14520 C311       -15.8960    26.8160   -13.1060 C.3     114  POP108     -0.0531
 14521 H11X       -15.6620    27.7870   -13.6530 H       114  POP108      0.0265
 14522 H11Y       -15.1500    26.0310   -13.3260 H       114  POP108      0.0265
 14523 C312       -15.9390    26.8120   -11.6150 C.3     114  POP108     -0.0531
 14524 H12X       -15.0300    27.1450   -11.1070 H       114  POP108      0.0265
 14525 H12Y       -15.9410    25.6820   -11.2950 H       114  POP108      0.0265
 14526 C313       -17.0790    27.5110   -10.9380 C.3     114  POP108     -0.0531
 14527 H13X       -17.9880    27.4360   -11.5320 H       114  POP108      0.0265
 14528 H13Y       -16.8820    28.5670   -10.8670 H       114  POP108      0.0265
 14529 C314       -17.3250    26.9780    -9.4470 C.3     114  POP108     -0.0533
 14530 H14X       -17.2830    25.9130    -9.4330 H       114  POP108      0.0265
 14531 H14Y       -18.3810    27.2640    -9.2540 H       114  POP108      0.0265
 14532 C315       -16.3340    27.5300    -8.4120 C.3     114  POP108     -0.0559
 14533 H15X       -16.8000    27.5540    -7.4160 H       114  POP108      0.0263
 14534 H15Y       -16.1000    28.6230    -8.5780 H       114  POP108      0.0263
 14535 C316       -15.0690    26.7260    -8.0700 C.3     114  POP108     -0.0653
 14536 H16X       -15.3970    25.8640    -7.4400 H       114  POP108      0.0230
 14537 H16Y       -14.3630    27.3600    -7.5210 H       114  POP108      0.0230
 14538 H16Z       -14.5760    26.4430    -9.0380 H       114  POP108      0.0230
 14539 N           -5.4180   -17.0770   -21.4630 N.3     115  POP109      0.2385
 14540 C12         -6.7660   -16.3710   -21.3560 C.3     115  POP109     -0.0064
 14541 H12A        -7.0060   -16.2740   -20.2750 H       115  POP109      0.0838
 14542 H12B        -7.6120   -17.0550   -21.6800 H       115  POP109      0.0838
 14543 C13         -5.4490   -18.2150   -20.4940 C.3     115  POP109     -0.0417
 14544 H13A        -6.3820   -18.7530   -20.3920 H       115  POP109      0.0778
 14545 H13B        -4.7720   -19.0110   -20.7930 H       115  POP109      0.0778
 14546 H13C        -5.1330   -17.9270   -19.4870 H       115  POP109      0.0778
 14547 C14         -5.3390   -17.6320   -22.8560 C.3     115  POP109     -0.0417
 14548 H14A        -5.3720   -16.9140   -23.6660 H       115  POP109      0.0778
 14549 H14B        -4.4860   -18.2930   -23.0430 H       115  POP109      0.0778
 14550 H14C        -6.1570   -18.2460   -23.0960 H       115  POP109      0.0778
 14551 C15         -4.2980   -16.1490   -21.1250 C.3     115  POP109     -0.0417
 14552 H15A        -4.3130   -15.5260   -22.0000 H       115  POP109      0.0778
 14553 H15B        -3.2940   -16.6330   -21.1790 H       115  POP109      0.0778
 14554 H15C        -4.6000   -15.6410   -20.2330 H       115  POP109      0.0778
 14555 C11         -6.9090   -14.9530   -21.9230 C.3     115  POP109      0.0954
 14556 H11A        -6.8110   -14.9780   -23.0380 H       115  POP109      0.0618
 14557 H11B        -6.1290   -14.2420   -21.4400 H       115  POP109      0.0618
 14558 P           -8.3140   -13.6320   -20.1840 P.3     115  POP109      0.2645
 14559 O13         -9.6950   -13.4360   -19.7270 O.co2   115  POP109     -0.5105
 14560 O14         -7.5210   -12.3490   -20.2590 O.co2   115  POP109     -0.5105
 14561 O12         -8.2270   -14.4130   -21.6110 O.3     115  POP109     -0.3154
 14562 O11         -7.5930   -14.6390   -19.2100 O.3     115  POP109     -0.3181
 14563 C1          -8.2820   -15.3890   -18.2680 C.3     115  POP109      0.0845
 14564 HA          -7.7030   -16.2500   -17.9550 H       115  POP109      0.0591
 14565 HB          -9.2770   -15.7860   -18.6560 H       115  POP109      0.0591
 14566 C2          -8.7320   -14.5010   -17.0250 C.3     115  POP109      0.1155
 14567 HS          -9.0750   -13.5710   -17.3920 H       115  POP109      0.0649
 14568 O21         -7.6270   -14.4360   -16.1730 O.3     115  POP109     -0.3072
 14569 C21         -7.6260   -13.3300   -15.4380 C.2     115  POP109      0.2626
 14570 O22         -8.4330   -12.4240   -15.4570 O.2     115  POP109     -0.2650
 14571 C22         -6.4930   -13.3770   -14.4100 C.3     115  POP109      0.0332
 14572 H2R         -5.6130   -13.6820   -14.9190 H       115  POP109      0.0366
 14573 H2S         -6.7300   -14.1570   -13.6760 H       115  POP109      0.0366
 14574 C3          -9.9650   -15.1390   -16.2650 C.3     115  POP109      0.0860
 14575 HX          -9.6310   -16.1020   -15.7360 H       115  POP109      0.0593
 14576 HY         -10.7130   -15.5290   -16.9770 H       115  POP109      0.0593
 14577 O31        -10.5440   -14.2340   -15.2660 O.3     115  POP109     -0.3125
 14578 C31        -11.8470   -14.2240   -15.1380 C.2     115  POP109      0.2622
 14579 O32        -12.6730   -14.7740   -15.8740 O.2     115  POP109     -0.2650
 14580 C32        -12.2160   -13.5020   -13.8980 C.3     115  POP109      0.0332
 14581 H2X        -13.3860   -13.4070   -13.7570 H       115  POP109      0.0366
 14582 H2Y        -11.8160   -12.4550   -14.0130 H       115  POP109      0.0366
 14583 C23         -6.1040   -11.9520   -13.7870 C.3     115  POP109     -0.0441
 14584 H3R         -7.0340   -11.4960   -13.4600 H       115  POP109      0.0270
 14585 H3S         -5.7190   -11.2750   -14.6020 H       115  POP109      0.0270
 14586 C24         -5.0870   -12.0800   -12.6200 C.3     115  POP109     -0.0526
 14587 H4R         -4.1260   -12.6200   -12.8920 H       115  POP109      0.0265
 14588 H4S         -5.4940   -12.5630   -11.7710 H       115  POP109      0.0265
 14589 C25         -4.5740   -10.7150   -12.1120 C.3     115  POP109     -0.0530
 14590 H5R         -5.4100   -10.1240   -11.7800 H       115  POP109      0.0265
 14591 H5S         -4.2100   -10.1350   -13.0180 H       115  POP109      0.0265
 14592 C26         -3.3870   -10.7800   -11.0930 C.3     115  POP109     -0.0528
 14593 H6R         -3.0940    -9.7330   -10.8810 H       115  POP109      0.0265
 14594 H6S         -2.6320   -11.3830   -11.6050 H       115  POP109      0.0265
 14595 C27         -3.7290   -11.3560    -9.6680 C.3     115  POP109     -0.0496
 14596 H7R         -4.1490   -12.3720    -9.7380 H       115  POP109      0.0268
 14597 H7S         -4.7010   -10.8760    -9.3300 H       115  POP109      0.0268
 14598 C28         -2.6540   -11.0280    -8.5620 C.3     115  POP109     -0.0348
 14599 H8R         -3.1260   -11.4410    -7.6160 H       115  POP109      0.0307
 14600 H8S         -2.5390    -9.8880    -8.5000 H       115  POP109      0.0307
 14601 C29         -1.3040   -11.7430    -8.7770 C.2     115  POP109     -0.0879
 14602 H91         -1.0240   -11.7680    -9.7890 H       115  POP109      0.0569
 14603 C210        -0.6920   -12.4120    -7.7930 C.2     115  POP109     -0.0879
 14604 H101         0.1600   -13.0000    -7.9470 H       115  POP109      0.0569
 14605 C211        -1.1650   -12.4640    -6.3400 C.3     115  POP109     -0.0348
 14606 H11R        -1.9280   -13.3130    -6.3070 H       115  POP109      0.0307
 14607 H11S        -1.5790   -11.5330    -5.9330 H       115  POP109      0.0307
 14608 C212         0.0500   -12.8630    -5.4170 C.3     115  POP109     -0.0496
 14609 H12R         0.7420   -12.0150    -5.3630 H       115  POP109      0.0268
 14610 H12S         0.5540   -13.7470    -5.9520 H       115  POP109      0.0268
 14611 C213        -0.4670   -13.2690    -4.0250 C.3     115  POP109     -0.0528
 14612 H13R        -1.2260   -13.9920    -4.2120 H       115  POP109      0.0265
 14613 H13S        -0.9480   -12.4280    -3.5240 H       115  POP109      0.0265
 14614 C214         0.5580   -13.8750    -3.1470 C.3     115  POP109     -0.0530
 14615 H14R         1.0220   -14.7560    -3.6320 H       115  POP109      0.0265
 14616 H14S         0.1560   -14.3170    -2.2140 H       115  POP109      0.0265
 14617 C215         1.6310   -12.8830    -2.6130 C.3     115  POP109     -0.0531
 14618 H15R         0.9860   -12.1350    -2.1000 H       115  POP109      0.0265
 14619 H15S         2.1390   -12.4760    -3.4850 H       115  POP109      0.0265
 14620 C216         2.6310   -13.3350    -1.5620 C.3     115  POP109     -0.0533
 14621 H16R         2.1500   -13.7750    -0.6760 H       115  POP109      0.0265
 14622 H16S         3.2520   -12.4470    -1.1750 H       115  POP109      0.0265
 14623 C217         3.5460   -14.5000    -2.0640 C.3     115  POP109     -0.0559
 14624 H17R         2.8940   -15.3950    -2.0460 H       115  POP109      0.0263
 14625 H17S         4.3410   -14.6670    -1.2640 H       115  POP109      0.0263
 14626 C218         4.2510   -14.4650    -3.4210 C.3     115  POP109     -0.0653
 14627 H18R         3.5000   -14.3360    -4.2280 H       115  POP109      0.0230
 14628 H18S         4.8210   -15.4400    -3.5430 H       115  POP109      0.0230
 14629 H18T         4.9930   -13.6110    -3.4870 H       115  POP109      0.0230
 14630 C33        -11.4740   -14.0890   -12.6650 C.3     115  POP109     -0.0441
 14631 H3X        -10.3760   -13.9920   -12.8620 H       115  POP109      0.0270
 14632 H3Y        -11.7230   -15.1710   -12.5320 H       115  POP109      0.0270
 14633 C34        -11.8750   -13.5190   -11.1930 C.3     115  POP109     -0.0526
 14634 H4X        -12.9530   -13.2820   -11.1860 H       115  POP109      0.0265
 14635 H4Y        -11.3190   -12.5720   -11.1590 H       115  POP109      0.0265
 14636 C35        -11.4580   -14.4570   -10.1500 C.3     115  POP109     -0.0530
 14637 H5X        -10.4370   -14.8950   -10.2760 H       115  POP109      0.0265
 14638 H5Y        -12.1560   -15.3240   -10.2160 H       115  POP109      0.0265
 14639 C36        -11.5700   -13.7870    -8.7960 C.3     115  POP109     -0.0531
 14640 H6X        -12.6820   -13.6020    -8.6830 H       115  POP109      0.0265
 14641 H6Y        -11.1200   -12.7730    -8.6460 H       115  POP109      0.0265
 14642 C37        -10.8830   -14.6330    -7.7200 C.3     115  POP109     -0.0531
 14643 H7X         -9.8600   -14.7120    -7.8910 H       115  POP109      0.0265
 14644 H7Y        -11.2040   -15.6720    -7.7700 H       115  POP109      0.0265
 14645 C38        -11.0840   -14.1440    -6.2810 C.3     115  POP109     -0.0531
 14646 H8X        -12.0900   -13.7890    -6.1340 H       115  POP109      0.0265
 14647 H8Y        -10.4290   -13.2490    -6.1440 H       115  POP109      0.0265
 14648 C39        -10.6670   -15.1130    -5.2910 C.3     115  POP109     -0.0531
 14649 H9X         -9.5980   -15.2290    -5.4450 H       115  POP109      0.0265
 14650 H9Y        -11.0190   -16.1900    -5.4880 H       115  POP109      0.0265
 14651 C310       -11.0750   -14.6930    -3.8610 C.3     115  POP109     -0.0531
 14652 H10X       -12.1090   -14.9520    -3.7600 H       115  POP109      0.0265
 14653 H10Y       -10.8880   -13.6120    -3.6940 H       115  POP109      0.0265
 14654 C311       -10.4490   -15.5690    -2.7830 C.3     115  POP109     -0.0531
 14655 H11X        -9.3910   -15.7960    -3.0120 H       115  POP109      0.0265
 14656 H11Y       -10.9600   -16.5380    -2.8350 H       115  POP109      0.0265
 14657 C312       -10.6850   -15.0410    -1.4070 C.3     115  POP109     -0.0531
 14658 H12X       -11.7630   -14.6880    -1.3460 H       115  POP109      0.0265
 14659 H12Y       -10.0450   -14.0500    -1.2310 H       115  POP109      0.0265
 14660 C313       -10.4260   -16.0250    -0.2500 C.3     115  POP109     -0.0531
 14661 H13X       -10.5480   -15.4130     0.7310 H       115  POP109      0.0265
 14662 H13Y        -9.4070   -16.3890    -0.3590 H       115  POP109      0.0265
 14663 C314       -11.4840   -17.1400    -0.0380 C.3     115  POP109     -0.0533
 14664 H14X       -11.6380   -17.6760    -1.0250 H       115  POP109      0.0265
 14665 H14Y       -12.4000   -16.5240     0.1500 H       115  POP109      0.0265
 14666 C315       -11.2210   -18.1960     1.0120 C.3     115  POP109     -0.0559
 14667 H15X       -10.1850   -18.6000     0.8840 H       115  POP109      0.0263
 14668 H15Y       -12.0050   -19.0630     0.8490 H       115  POP109      0.0263
 14669 C316       -11.4410   -17.5370     2.3740 C.3     115  POP109     -0.0653
 14670 H16X       -10.6660   -16.8250     2.6120 H       115  POP109      0.0230
 14671 H16Y       -11.5530   -18.3000     3.2100 H       115  POP109      0.0230
 14672 H16Z       -12.3610   -16.9520     2.4480 H       115  POP109      0.0230
 14673 N           14.3370    -2.8450   -15.0830 N.3     116  POP110      0.2385
 14674 C12         14.5190    -4.1130   -14.3710 C.3     116  POP110     -0.0064
 14675 H12A        14.8630    -4.8090   -15.1010 H       116  POP110      0.0838
 14676 H12B        13.5300    -4.4590   -14.0370 H       116  POP110      0.0838
 14677 C13         13.6430    -3.0310   -16.3500 C.3     116  POP110     -0.0417
 14678 H13A        12.7710    -3.4400   -16.0790 H       116  POP110      0.0778
 14679 H13B        13.5960    -2.0140   -16.8660 H       116  POP110      0.0778
 14680 H13C        14.2230    -3.7000   -17.0330 H       116  POP110      0.0778
 14681 C14         13.5360    -1.8910   -14.2560 C.3     116  POP110     -0.0417
 14682 H14A        13.8160    -1.8990   -13.2050 H       116  POP110      0.0778
 14683 H14B        13.5310    -0.8400   -14.6260 H       116  POP110      0.0778
 14684 H14C        12.5000    -2.2150   -14.2430 H       116  POP110      0.0778
 14685 C15         15.6250    -2.2480   -15.6110 C.3     116  POP110     -0.0417
 14686 H15A        16.3660    -2.1710   -14.7560 H       116  POP110      0.0778
 14687 H15B        15.4830    -1.2470   -15.9130 H       116  POP110      0.0778
 14688 H15C        16.1410    -2.8760   -16.2440 H       116  POP110      0.0778
 14689 C11         15.5170    -4.1200   -13.0670 C.3     116  POP110      0.0954
 14690 H11A        16.4890    -3.9460   -13.5100 H       116  POP110      0.0618
 14691 H11B        15.7550    -5.1400   -12.5910 H       116  POP110      0.0618
 14692 P           14.3800    -3.5130   -10.8580 P.3     116  POP110      0.2645
 14693 O13         13.0630    -4.0080   -11.3000 O.co2   116  POP110     -0.5105
 14694 O14         14.3700    -2.3500    -9.9410 O.co2   116  POP110     -0.5105
 14695 O12         15.2080    -3.1060   -12.1150 O.3     116  POP110     -0.3154
 14696 O11         15.2810    -4.6840   -10.2690 O.3     116  POP110     -0.3181
 14697 C1          16.6330    -4.4100    -9.9260 C.3     116  POP110      0.0845
 14698 HA          16.8460    -3.3090   -10.0910 H       116  POP110      0.0591
 14699 HB          17.3380    -4.9930   -10.5320 H       116  POP110      0.0591
 14700 C2          16.9940    -4.7690    -8.4180 C.3     116  POP110      0.1155
 14701 HS          17.9650    -4.2630    -8.2390 H       116  POP110      0.0649
 14702 O21         17.0360    -6.1800    -8.2850 O.3     116  POP110     -0.3072
 14703 C21         18.1110    -6.8610    -8.7590 C.2     116  POP110      0.2626
 14704 O22         18.9930    -6.3040    -9.3640 O.2     116  POP110     -0.2650
 14705 C22         18.0860    -8.3610    -8.5500 C.3     116  POP110      0.0332
 14706 H2R         18.8440    -8.9080    -9.1420 H       116  POP110      0.0366
 14707 H2S         17.1210    -8.8050    -8.9860 H       116  POP110      0.0366
 14708 C3          16.0300    -4.2850    -7.3120 C.3     116  POP110      0.0860
 14709 HX          14.9590    -4.7010    -7.2340 H       116  POP110      0.0593
 14710 HY          15.7740    -3.2400    -7.6840 H       116  POP110      0.0593
 14711 O31         16.7080    -4.0130    -6.0650 O.3     116  POP110     -0.3125
 14712 C31         16.6360    -5.0620    -5.2290 C.2     116  POP110      0.2622
 14713 O32         15.9340    -6.0290    -5.4170 O.2     116  POP110     -0.2650
 14714 C32         17.3570    -4.7300    -3.9530 C.3     116  POP110      0.0332
 14715 H2X         17.0770    -5.5970    -3.3090 H       116  POP110      0.0366
 14716 H2Y         16.9810    -3.7750    -3.6260 H       116  POP110      0.0366
 14717 C23         18.0110    -8.7610    -7.0610 C.3     116  POP110     -0.0441
 14718 H3R         17.7910    -9.8420    -6.9210 H       116  POP110      0.0270
 14719 H3S         17.1910    -8.1520    -6.5670 H       116  POP110      0.0270
 14720 C24         19.3520    -8.5560    -6.3410 C.3     116  POP110     -0.0526
 14721 H4R         19.5150    -7.4830    -6.3860 H       116  POP110      0.0265
 14722 H4S         20.1120    -9.0640    -6.9180 H       116  POP110      0.0265
 14723 C25         19.3390    -9.0360    -4.8830 C.3     116  POP110     -0.0530
 14724 H5R         20.2540    -8.9140    -4.3150 H       116  POP110      0.0265
 14725 H5S         19.1630   -10.1470    -4.9920 H       116  POP110      0.0265
 14726 C26         18.1560    -8.5200    -4.0390 C.3     116  POP110     -0.0528
 14727 H6R         17.1970    -8.9630    -4.4090 H       116  POP110      0.0265
 14728 H6S         18.0790    -7.4120    -4.0740 H       116  POP110      0.0265
 14729 C27         18.3630    -8.9320    -2.5340 C.3     116  POP110     -0.0496
 14730 H7R         19.3090    -8.4850    -2.2240 H       116  POP110      0.0268
 14731 H7S         18.3220   -10.0390    -2.4810 H       116  POP110      0.0268
 14732 C28         17.2640    -8.3200    -1.6840 C.3     116  POP110     -0.0348
 14733 H8R         16.2490    -8.6650    -2.1380 H       116  POP110      0.0307
 14734 H8S         17.3110    -7.2230    -1.8020 H       116  POP110      0.0307
 14735 C29         17.3510    -8.8310    -0.2560 C.2     116  POP110     -0.0879
 14736 H91         16.6250    -9.5810     0.0570 H       116  POP110      0.0569
 14737 C210        18.1190    -8.2840     0.7370 C.2     116  POP110     -0.0879
 14738 H101        18.0010    -8.4820     1.8280 H       116  POP110      0.0569
 14739 C211        19.1700    -7.2190     0.6120 C.3     116  POP110     -0.0348
 14740 H11R        18.8510    -6.2590     1.1050 H       116  POP110      0.0307
 14741 H11S        19.4430    -6.9610    -0.4430 H       116  POP110      0.0307
 14742 C212        20.4320    -7.8020     1.3400 C.3     116  POP110     -0.0496
 14743 H12R        21.1850    -7.0000     1.0490 H       116  POP110      0.0268
 14744 H12S        20.7010    -8.7730     0.8450 H       116  POP110      0.0268
 14745 C213        20.5350    -7.7380     2.8350 C.3     116  POP110     -0.0528
 14746 H13R        20.0940    -8.6660     3.2750 H       116  POP110      0.0265
 14747 H13S        19.9390    -6.9350     3.2290 H       116  POP110      0.0265
 14748 C214        22.0250    -7.5700     3.4760 C.3     116  POP110     -0.0530
 14749 H14R        21.8540    -7.4940     4.6170 H       116  POP110      0.0265
 14750 H14S        22.4760    -6.6850     3.0810 H       116  POP110      0.0265
 14751 C215        23.0060    -8.7010     3.1580 C.3     116  POP110     -0.0531
 14752 H15R        23.0380    -8.9450     2.0820 H       116  POP110      0.0265
 14753 H15S        22.5760    -9.6040     3.5610 H       116  POP110      0.0265
 14754 C216        24.3700    -8.3760     3.7770 C.3     116  POP110     -0.0533
 14755 H16R        25.0150    -9.2050     3.5690 H       116  POP110      0.0265
 14756 H16S        24.2290    -8.5280     4.9040 H       116  POP110      0.0265
 14757 C217        25.1030    -7.0910     3.2960 C.3     116  POP110     -0.0559
 14758 H17R        24.8430    -6.8100     2.2810 H       116  POP110      0.0263
 14759 H17S        26.1530    -7.2630     3.3060 H       116  POP110      0.0263
 14760 C218        24.7860    -5.9880     4.2990 C.3     116  POP110     -0.0653
 14761 H18R        25.4230    -6.1450     5.2480 H       116  POP110      0.0230
 14762 H18S        23.7550    -6.1670     4.6650 H       116  POP110      0.0230
 14763 H18T        24.8670    -4.9510     3.9620 H       116  POP110      0.0230
 14764 C33         18.8690    -4.7770    -4.0920 C.3     116  POP110     -0.0441
 14765 H3X         19.0760    -3.7940    -4.5720 H       116  POP110      0.0270
 14766 H3Y         19.1780    -5.6170    -4.7860 H       116  POP110      0.0270
 14767 C34         19.4750    -4.7950    -2.6930 C.3     116  POP110     -0.0526
 14768 H4X         19.1840    -5.6480    -2.0590 H       116  POP110      0.0265
 14769 H4Y         19.0580    -3.8540    -2.3070 H       116  POP110      0.0265
 14770 C35         21.0070    -4.7730    -2.5700 C.3     116  POP110     -0.0530
 14771 H5X         21.4080    -4.0040    -3.2290 H       116  POP110      0.0265
 14772 H5Y         21.3480    -5.8020    -2.8330 H       116  POP110      0.0265
 14773 C36         21.2880    -4.3770    -1.1380 C.3     116  POP110     -0.0531
 14774 H6X         21.0090    -5.1580    -0.4470 H       116  POP110      0.0265
 14775 H6Y         20.7700    -3.3660    -0.9400 H       116  POP110      0.0265
 14776 C37         22.8060    -4.2670    -0.8760 C.3     116  POP110     -0.0531
 14777 H7X         23.2280    -3.5160    -1.7200 H       116  POP110      0.0265
 14778 H7Y         23.3790    -5.1570    -1.0090 H       116  POP110      0.0265
 14779 C38         23.0700    -3.6860     0.4850 C.3     116  POP110     -0.0531
 14780 H8X         22.6550    -4.3420     1.3340 H       116  POP110      0.0265
 14781 H8Y         22.6190    -2.6930     0.5680 H       116  POP110      0.0265
 14782 C39         24.5490    -3.4500     0.5450 C.3     116  POP110     -0.0531
 14783 H9X         24.8460    -2.8930    -0.3410 H       116  POP110      0.0265
 14784 H9Y         25.2690    -4.3940     0.5030 H       116  POP110      0.0265
 14785 C310        24.9050    -2.4830     1.6550 C.3     116  POP110     -0.0531
 14786 H10X        24.2970    -2.8250     2.5550 H       116  POP110      0.0265
 14787 H10Y        24.7030    -1.4850     1.3460 H       116  POP110      0.0265
 14788 C311        26.3680    -2.5400     2.0110 C.3     116  POP110     -0.0531
 14789 H11X        26.7020    -3.6230     2.0760 H       116  POP110      0.0265
 14790 H11Y        26.4150    -2.1890     3.0320 H       116  POP110      0.0265
 14791 C312        27.3820    -1.6150     1.2610 C.3     116  POP110     -0.0531
 14792 H12X        28.3590    -1.8410     1.7080 H       116  POP110      0.0265
 14793 H12Y        27.0500    -0.5340     1.5230 H       116  POP110      0.0265
 14794 C313        27.4390    -1.8230    -0.2330 C.3     116  POP110     -0.0531
 14795 H13X        26.5080    -1.5540    -0.7790 H       116  POP110      0.0265
 14796 H13Y        27.6430    -2.9160    -0.4870 H       116  POP110      0.0265
 14797 C314        28.6610    -1.0220    -0.8080 C.3     116  POP110     -0.0533
 14798 H14X        28.6760    -1.2020    -1.8460 H       116  POP110      0.0265
 14799 H14Y        29.6430    -1.4260    -0.3840 H       116  POP110      0.0265
 14800 C315        28.5550     0.4600    -0.4210 C.3     116  POP110     -0.0559
 14801 H15X        29.4620     0.9550    -1.0550 H       116  POP110      0.0263
 14802 H15Y        28.7980     0.7340     0.6660 H       116  POP110      0.0263
 14803 C316        27.3660     1.2410    -0.8710 C.3     116  POP110     -0.0653
 14804 H16X        26.5200     0.6580    -0.4550 H       116  POP110      0.0230
 14805 H16Y        27.3650     1.2940    -2.0010 H       116  POP110      0.0230
 14806 H16Z        27.2790     2.2270    -0.4710 H       116  POP110      0.0230
 14807 N          -18.9660   -29.0020   -23.4020 N.3     117  POP111      0.2385
 14808 C12        -19.9150   -28.5070   -22.3290 C.3     117  POP111     -0.0064
 14809 H12A       -20.3020   -27.5640   -22.6480 H       117  POP111      0.0838
 14810 H12B       -19.2940   -28.2280   -21.4540 H       117  POP111      0.0838
 14811 C13        -17.8940   -27.9360   -23.7330 C.3     117  POP111     -0.0417
 14812 H13A       -17.3680   -27.5390   -22.9000 H       117  POP111      0.0778
 14813 H13B       -17.1130   -28.4080   -24.3570 H       117  POP111      0.0778
 14814 H13C       -18.2550   -27.0760   -24.3310 H       117  POP111      0.0778
 14815 C14        -18.1710   -30.1930   -23.0350 C.3     117  POP111     -0.0417
 14816 H14A       -17.5450   -30.5230   -23.7990 H       117  POP111      0.0778
 14817 H14B       -17.6790   -29.9680   -22.0670 H       117  POP111      0.0778
 14818 H14C       -18.8690   -31.0220   -22.7880 H       117  POP111      0.0778
 14819 C15        -19.8290   -29.2300   -24.6030 C.3     117  POP111     -0.0417
 14820 H15A       -19.2470   -29.6970   -25.3910 H       117  POP111      0.0778
 14821 H15B       -20.1770   -28.2820   -25.0230 H       117  POP111      0.0778
 14822 H15C       -20.6520   -29.9000   -24.2940 H       117  POP111      0.0778
 14823 C11        -21.0350   -29.4000   -21.7700 C.3     117  POP111      0.0954
 14824 H11A       -21.3930   -28.9340   -20.7550 H       117  POP111      0.0618
 14825 H11B       -20.5170   -30.3590   -21.7180 H       117  POP111      0.0618
 14826 P          -23.0100   -30.7160   -22.8090 P.3     117  POP111      0.2645
 14827 O13        -22.3290   -31.6830   -23.7170 O.co2   117  POP111     -0.5105
 14828 O14        -24.4110   -30.3270   -23.2150 O.co2   117  POP111     -0.5105
 14829 O12        -22.1280   -29.4330   -22.7090 O.3     117  POP111     -0.3154
 14830 O11        -23.0200   -31.2550   -21.3260 O.3     117  POP111     -0.3181
 14831 C1         -23.9710   -30.7240   -20.3900 C.3     117  POP111      0.0845
 14832 HA         -24.9110   -31.2470   -20.4350 H       117  POP111      0.0591
 14833 HB         -24.2600   -29.6780   -20.6040 H       117  POP111      0.0591
 14834 C2         -23.4840   -30.7570   -18.9040 C.3     117  POP111      0.1155
 14835 HS         -22.6320   -30.0740   -18.9610 H       117  POP111      0.0649
 14836 O21        -23.2450   -32.1150   -18.5900 O.3     117  POP111     -0.3072
 14837 C21        -22.1170   -32.2170   -17.9250 C.2     117  POP111      0.2626
 14838 O22        -21.3610   -31.3010   -17.5590 O.2     117  POP111     -0.2650
 14839 C22        -21.9410   -33.6800   -17.6570 C.3     117  POP111      0.0332
 14840 H2R        -20.9040   -33.9880   -17.9340 H       117  POP111      0.0366
 14841 H2S        -22.6100   -34.3370   -18.2710 H       117  POP111      0.0366
 14842 C3         -24.5310   -30.0070   -17.9290 C.3     117  POP111      0.0860
 14843 HX         -24.2920   -30.0570   -16.8560 H       117  POP111      0.0593
 14844 HY         -25.3470   -30.6520   -18.1180 H       117  POP111      0.0593
 14845 O31        -24.9740   -28.6720   -18.3460 O.3     117  POP111     -0.3125
 14846 C31        -24.1610   -27.7040   -17.9950 C.2     117  POP111      0.2622
 14847 O32        -23.0320   -27.8150   -17.6990 O.2     117  POP111     -0.2650
 14848 C32        -24.8180   -26.3510   -18.1830 C.3     117  POP111      0.0332
 14849 H2X        -25.8480   -26.6650   -18.6250 H       117  POP111      0.0366
 14850 H2Y        -24.2140   -25.6440   -18.8350 H       117  POP111      0.0366
 14851 C23        -22.2300   -34.0110   -16.2080 C.3     117  POP111     -0.0441
 14852 H3R        -23.3130   -34.1310   -16.0640 H       117  POP111      0.0270
 14853 H3S        -21.7140   -33.1040   -15.6790 H       117  POP111      0.0270
 14854 C24        -21.5910   -35.3770   -15.6540 C.3     117  POP111     -0.0526
 14855 H4R        -21.9760   -36.0850   -16.3700 H       117  POP111      0.0265
 14856 H4S        -22.1030   -35.4730   -14.6920 H       117  POP111      0.0265
 14857 C25        -20.0730   -35.3440   -15.6190 C.3     117  POP111     -0.0530
 14858 H5R        -19.7510   -34.6690   -14.8580 H       117  POP111      0.0265
 14859 H5S        -19.6290   -34.9850   -16.6230 H       117  POP111      0.0265
 14860 C26        -19.4680   -36.6680   -15.0800 C.3     117  POP111     -0.0528
 14861 H6R        -19.1620   -37.3630   -15.9100 H       117  POP111      0.0265
 14862 H6S        -20.2870   -37.1810   -14.6580 H       117  POP111      0.0265
 14863 C27        -18.3050   -36.4080   -14.1460 C.3     117  POP111     -0.0496
 14864 H7R        -17.5410   -35.7720   -14.6240 H       117  POP111      0.0268
 14865 H7S        -17.7670   -37.3690   -14.0020 H       117  POP111      0.0268
 14866 C28        -18.6050   -35.6960   -12.8070 C.3     117  POP111     -0.0348
 14867 H8R        -18.5010   -34.5970   -13.0150 H       117  POP111      0.0307
 14868 H8S        -17.6920   -35.8860   -12.1860 H       117  POP111      0.0307
 14869 C29        -19.8900   -36.0390   -12.1320 C.2     117  POP111     -0.0879
 14870 H91        -20.2640   -37.0370   -12.3890 H       117  POP111      0.0569
 14871 C210       -20.5100   -35.2350   -11.3450 C.2     117  POP111     -0.0879
 14872 H101       -21.4820   -35.4900   -10.8120 H       117  POP111      0.0569
 14873 C211       -20.1850   -33.8300   -11.0260 C.3     117  POP111     -0.0348
 14874 H11R       -19.2480   -33.4670   -11.5010 H       117  POP111      0.0307
 14875 H11S       -20.0100   -33.7890    -9.9640 H       117  POP111      0.0307
 14876 C212       -21.2900   -32.7710   -11.4300 C.3     117  POP111     -0.0496
 14877 H12R       -20.8490   -31.7550   -11.1720 H       117  POP111      0.0268
 14878 H12S       -22.2570   -32.9160   -10.8570 H       117  POP111      0.0268
 14879 C213       -21.5760   -32.6560   -12.9160 C.3     117  POP111     -0.0528
 14880 H13R       -22.4780   -33.2080   -13.2060 H       117  POP111      0.0265
 14881 H13S       -20.6510   -33.0780   -13.4160 H       117  POP111      0.0265
 14882 C214       -21.6510   -31.1710   -13.3220 C.3     117  POP111     -0.0530
 14883 H14R       -22.0890   -30.6000   -12.4620 H       117  POP111      0.0265
 14884 H14S       -22.2460   -30.9630   -14.2850 H       117  POP111      0.0265
 14885 C215       -20.2510   -30.6970   -13.6110 C.3     117  POP111     -0.0531
 14886 H15R       -19.9110   -31.0950   -14.6170 H       117  POP111      0.0265
 14887 H15S       -19.6480   -31.1820   -12.8270 H       117  POP111      0.0265
 14888 C216       -20.0810   -29.2140   -13.3720 C.3     117  POP111     -0.0533
 14889 H16R       -18.9740   -28.9980   -13.3380 H       117  POP111      0.0265
 14890 H16S       -20.7330   -28.9390   -12.5560 H       117  POP111      0.0265
 14891 C217       -20.6180   -28.2800   -14.5200 C.3     117  POP111     -0.0559
 14892 H17R       -21.5510   -28.7110   -14.9540 H       117  POP111      0.0263
 14893 H17S       -19.9070   -28.3260   -15.3370 H       117  POP111      0.0263
 14894 C218       -20.8740   -26.8360   -14.0780 C.3     117  POP111     -0.0653
 14895 H18R       -21.5120   -26.8380   -13.1780 H       117  POP111      0.0230
 14896 H18S       -21.4890   -26.4500   -14.9190 H       117  POP111      0.0230
 14897 H18T       -19.8950   -26.3420   -13.8950 H       117  POP111      0.0230
 14898 C33        -25.2030   -25.6960   -16.8530 C.3     117  POP111     -0.0441
 14899 H3X        -25.8540   -26.3840   -16.3110 H       117  POP111      0.0270
 14900 H3Y        -25.8840   -24.8160   -17.0700 H       117  POP111      0.0270
 14901 C34        -24.0830   -25.3070   -15.9180 C.3     117  POP111     -0.0526
 14902 H4X        -23.5330   -24.4120   -16.4220 H       117  POP111      0.0265
 14903 H4Y        -23.3020   -26.0920   -15.7480 H       117  POP111      0.0265
 14904 C35        -24.5030   -24.7750   -14.5450 C.3     117  POP111     -0.0530
 14905 H5X        -25.0450   -23.8380   -14.6640 H       117  POP111      0.0265
 14906 H5Y        -23.6260   -24.3950   -13.9910 H       117  POP111      0.0265
 14907 C36        -25.4120   -25.6470   -13.7410 C.3     117  POP111     -0.0531
 14908 H6X        -24.8500   -26.5680   -13.5000 H       117  POP111      0.0265
 14909 H6Y        -26.2870   -25.8640   -14.3780 H       117  POP111      0.0265
 14910 C37        -25.8800   -24.9220   -12.3870 C.3     117  POP111     -0.0531
 14911 H7X        -26.6740   -25.5690   -11.9380 H       117  POP111      0.0265
 14912 H7Y        -26.2450   -23.8750   -12.5750 H       117  POP111      0.0265
 14913 C38        -24.7100   -24.7590   -11.3820 C.3     117  POP111     -0.0531
 14914 H8X        -23.8070   -24.4100   -11.8380 H       117  POP111      0.0265
 14915 H8Y        -24.5160   -25.7150   -10.8840 H       117  POP111      0.0265
 14916 C39        -25.1460   -23.8050   -10.2080 C.3     117  POP111     -0.0531
 14917 H9X        -25.9470   -24.2550    -9.4990 H       117  POP111      0.0265
 14918 H9Y        -25.5550   -22.8780   -10.5310 H       117  POP111      0.0265
 14919 C310       -23.8900   -23.3360    -9.4100 C.3     117  POP111     -0.0531
 14920 H10X       -23.2570   -22.6430    -9.9970 H       117  POP111      0.0265
 14921 H10Y       -23.3400   -24.3310    -9.3440 H       117  POP111      0.0265
 14922 C311       -24.1490   -22.8620    -8.0350 C.3     117  POP111     -0.0531
 14923 H11X       -24.8270   -23.6310    -7.5400 H       117  POP111      0.0265
 14924 H11Y       -24.6720   -21.8510    -8.0910 H       117  POP111      0.0265
 14925 C312       -22.9460   -22.5740    -7.1750 C.3     117  POP111     -0.0531
 14926 H12X       -22.3300   -21.8320    -7.7510 H       117  POP111      0.0265
 14927 H12Y       -22.3930   -23.4720    -6.9110 H       117  POP111      0.0265
 14928 C313       -23.3470   -21.9150    -5.8090 C.3     117  POP111     -0.0531
 14929 H13X       -24.0320   -22.6630    -5.3760 H       117  POP111      0.0265
 14930 H13Y       -23.9420   -20.9840    -5.9960 H       117  POP111      0.0265
 14931 C314       -22.1420   -21.7070    -4.9470 C.3     117  POP111     -0.0533
 14932 H14X       -21.3710   -20.9650    -5.4730 H       117  POP111      0.0265
 14933 H14Y       -21.6070   -22.6670    -4.8510 H       117  POP111      0.0265
 14934 C315       -22.5300   -21.2470    -3.5140 C.3     117  POP111     -0.0559
 14935 H15X       -23.0930   -21.9810    -2.9340 H       117  POP111      0.0263
 14936 H15Y       -23.0660   -20.2350    -3.6150 H       117  POP111      0.0263
 14937 C316       -21.4290   -21.0990    -2.5620 C.3     117  POP111     -0.0653
 14938 H16X       -20.7670   -20.1700    -2.7710 H       117  POP111      0.0230
 14939 H16Y       -20.7380   -21.9750    -2.6840 H       117  POP111      0.0230
 14940 H16Z       -21.7180   -20.8770    -1.5220 H       117  POP111      0.0230
 14941 N           22.3080    25.0530   -20.4000 N.3     118  POP112      0.2385
 14942 C12         23.5340    25.1560   -19.5400 C.3     118  POP112     -0.0064
 14943 H12A        23.2920    25.5830   -18.5560 H       118  POP112      0.0838
 14944 H12B        24.1380    25.9060   -20.0530 H       118  POP112      0.0838
 14945 C13         21.2160    24.1620   -19.6960 C.3     118  POP112     -0.0417
 14946 H13A        20.3830    24.0140   -20.4120 H       118  POP112      0.0778
 14947 H13B        21.6740    23.2070   -19.3700 H       118  POP112      0.0778
 14948 H13C        20.7770    24.6970   -18.9040 H       118  POP112      0.0778
 14949 C14         21.7800    26.3830   -20.7120 C.3     118  POP112     -0.0417
 14950 H14A        22.4670    26.9930   -21.2670 H       118  POP112      0.0778
 14951 H14B        20.9050    26.2810   -21.3280 H       118  POP112      0.0778
 14952 H14C        21.4580    26.9400   -19.8700 H       118  POP112      0.0778
 14953 C15         22.6590    24.4470   -21.7020 C.3     118  POP112     -0.0417
 14954 H15A        23.3090    25.0920   -22.2740 H       118  POP112      0.0778
 14955 H15B        21.7750    24.2790   -22.2940 H       118  POP112      0.0778
 14956 H15C        23.2350    23.4910   -21.6310 H       118  POP112      0.0778
 14957 C11         24.3730    23.9010   -19.1850 C.3     118  POP112      0.0954
 14958 H11A        23.6810    23.0640   -18.8940 H       118  POP112      0.0618
 14959 H11B        24.9630    24.2240   -18.2990 H       118  POP112      0.0618
 14960 P           26.4190    24.4330   -20.8670 P.3     118  POP112      0.2645
 14961 O13         25.9020    25.6260   -21.5540 O.co2   118  POP112     -0.5105
 14962 O14         27.4340    23.6180   -21.4890 O.co2   118  POP112     -0.5105
 14963 O12         25.1450    23.4870   -20.3580 O.3     118  POP112     -0.3154
 14964 O11         26.9610    24.9390   -19.5160 O.3     118  POP112     -0.3181
 14965 C1          28.2740    24.6880   -18.9560 C.3     118  POP112      0.0845
 14966 HA          28.3820    25.5550   -18.2550 H       118  POP112      0.0591
 14967 HB          29.0350    24.6290   -19.6740 H       118  POP112      0.0591
 14968 C2          28.2910    23.3700   -18.0930 C.3     118  POP112      0.1155
 14969 HS          28.0820    22.6810   -18.8690 H       118  POP112      0.0649
 14970 O21         27.2610    23.6260   -17.1040 O.3     118  POP112     -0.3072
 14971 C21         26.7870    22.4900   -16.5790 C.2     118  POP112      0.2626
 14972 O22         27.1960    21.3620   -16.8100 O.2     118  POP112     -0.2650
 14973 C22         25.7180    22.7930   -15.5040 C.3     118  POP112      0.0332
 14974 H2R         25.6780    21.8720   -14.9260 H       118  POP112      0.0366
 14975 H2S         24.7150    22.9990   -15.9990 H       118  POP112      0.0366
 14976 C3          29.6600    23.0560   -17.3910 C.3     118  POP112      0.0860
 14977 HX          30.4330    23.1710   -18.2140 H       118  POP112      0.0593
 14978 HY          29.7110    22.0060   -16.9880 H       118  POP112      0.0593
 14979 O31         29.8830    24.0070   -16.3260 O.3     118  POP112     -0.3125
 14980 C31         30.7530    25.0080   -16.5880 C.2     118  POP112      0.2622
 14981 O32         31.2690    25.1510   -17.6890 O.2     118  POP112     -0.2650
 14982 C32         30.9670    25.9250   -15.4200 C.3     118  POP112      0.0332
 14983 H2X         30.9140    26.9440   -15.9140 H       118  POP112      0.0366
 14984 H2Y         31.9890    25.8450   -14.9810 H       118  POP112      0.0366
 14985 C23         26.0210    23.9510   -14.5440 C.3     118  POP112     -0.0441
 14986 H3R         26.3180    24.8820   -15.1860 H       118  POP112      0.0270
 14987 H3S         26.9070    23.6370   -13.9800 H       118  POP112      0.0270
 14988 C24         24.7920    24.3620   -13.7620 C.3     118  POP112     -0.0526
 14989 H4R         24.4040    23.5500   -13.1290 H       118  POP112      0.0265
 14990 H4S         23.8790    24.4800   -14.4630 H       118  POP112      0.0265
 14991 C25         24.8650    25.6560   -12.8180 C.3     118  POP112     -0.0530
 14992 H5R         25.1830    26.5290   -13.4560 H       118  POP112      0.0265
 14993 H5S         25.6030    25.4690   -12.0510 H       118  POP112      0.0265
 14994 C26         23.5470    26.0700   -12.1920 C.3     118  POP112     -0.0528
 14995 H6R         22.6550    25.9090   -12.8080 H       118  POP112      0.0265
 14996 H6S         23.5500    27.1740   -12.0710 H       118  POP112      0.0265
 14997 C27         23.4150    25.2630   -10.8760 C.3     118  POP112     -0.0496
 14998 H7R         24.2420    25.4350   -10.1210 H       118  POP112      0.0268
 14999 H7S         23.4120    24.2330   -11.0840 H       118  POP112      0.0268
 15000 C28         22.1010    25.6280   -10.1470 C.3     118  POP112     -0.0348
 15001 H8R         21.7890    24.7590    -9.5340 H       118  POP112      0.0307
 15002 H8S         21.2470    25.6950   -10.9050 H       118  POP112      0.0307
 15003 C29         22.2280    26.8850    -9.3430 C.2     118  POP112     -0.0879
 15004 H91         22.9850    27.5800    -9.7590 H       118  POP112      0.0569
 15005 C210        21.3750    27.2990    -8.3570 C.2     118  POP112     -0.0879
 15006 H101        21.6650    28.1910    -7.8220 H       118  POP112      0.0569
 15007 C211        20.2260    26.5810    -7.6470 C.3     118  POP112     -0.0348
 15008 H11R        20.1150    25.5200    -7.9810 H       118  POP112      0.0307
 15009 H11S        19.2870    27.0940    -7.9720 H       118  POP112      0.0307
 15010 C212        20.3260    26.5010    -6.1060 C.3     118  POP112     -0.0496
 15011 H12R        20.5790    27.5920    -5.7800 H       118  POP112      0.0268
 15012 H12S        21.1820    25.8170    -5.8780 H       118  POP112      0.0268
 15013 C213        19.0580    26.0340    -5.3810 C.3     118  POP112     -0.0528
 15014 H13R        18.7510    25.0210    -5.7000 H       118  POP112      0.0265
 15015 H13S        18.2170    26.7160    -5.5390 H       118  POP112      0.0265
 15016 C214        19.2540    25.9990    -3.8090 C.3     118  POP112     -0.0530
 15017 H14R        19.3870    27.0980    -3.4930 H       118  POP112      0.0265
 15018 H14S        20.0660    25.4100    -3.4040 H       118  POP112      0.0265
 15019 C215        17.9600    25.4790    -3.1570 C.3     118  POP112     -0.0531
 15020 H15R        17.8090    24.3770    -3.5160 H       118  POP112      0.0265
 15021 H15S        17.0490    26.0630    -3.4550 H       118  POP112      0.0265
 15022 C216        18.0030    25.5730    -1.6290 C.3     118  POP112     -0.0533
 15023 H16R        18.8700    24.9250    -1.3260 H       118  POP112      0.0265
 15024 H16S        17.0270    25.0440    -1.3550 H       118  POP112      0.0265
 15025 C217        18.1450    27.0290    -1.1130 C.3     118  POP112     -0.0559
 15026 H17R        17.3180    27.6310    -1.5500 H       118  POP112      0.0263
 15027 H17S        19.1890    27.4160    -1.4830 H       118  POP112      0.0263
 15028 C218        18.2400    27.0250     0.3980 C.3     118  POP112     -0.0653
 15029 H18R        18.7200    27.8710     0.8110 H       118  POP112      0.0230
 15030 H18S        18.8500    26.2100     0.6770 H       118  POP112      0.0230
 15031 H18T        17.2590    26.8190     0.7560 H       118  POP112      0.0230
 15032 C33         29.9570    25.7370   -14.2000 C.3     118  POP112     -0.0441
 15033 H3X         29.8560    24.6720   -13.8640 H       118  POP112      0.0270
 15034 H3Y         28.9150    26.1880   -14.5790 H       118  POP112      0.0270
 15035 C34         30.1910    26.6350   -12.9140 C.3     118  POP112     -0.0526
 15036 H4X         29.3130    26.5160   -12.2120 H       118  POP112      0.0265
 15037 H4Y         30.2230    27.7150   -13.2710 H       118  POP112      0.0265
 15038 C35         31.3760    26.2880   -12.0510 C.3     118  POP112     -0.0530
 15039 H5X         32.3230    26.6550   -12.5750 H       118  POP112      0.0265
 15040 H5Y         31.4860    25.0770   -12.0070 H       118  POP112      0.0265
 15041 C36         31.4010    26.9370   -10.6350 C.3     118  POP112     -0.0531
 15042 H6X         30.4330    27.0060   -10.1240 H       118  POP112      0.0265
 15043 H6Y         31.8000    27.9420   -10.8030 H       118  POP112      0.0265
 15044 C37         32.3600    26.2360    -9.5950 C.3     118  POP112     -0.0531
 15045 H7X         33.4200    26.5440    -9.7810 H       118  POP112      0.0265
 15046 H7Y         32.2320    25.1300    -9.6820 H       118  POP112      0.0265
 15047 C38         32.1190    26.7930    -8.1420 C.3     118  POP112     -0.0531
 15048 H8X         31.0990    27.0220    -7.7990 H       118  POP112      0.0265
 15049 H8Y         32.4970    27.8450    -8.1630 H       118  POP112      0.0265
 15050 C39         32.8520    26.0460    -7.0010 C.3     118  POP112     -0.0531
 15051 H9X         33.8650    25.9880    -7.2780 H       118  POP112      0.0265
 15052 H9Y         32.4470    25.0030    -6.9350 H       118  POP112      0.0265
 15053 C310        32.8280    26.6730    -5.6330 C.3     118  POP112     -0.0531
 15054 H10X        31.7200    26.7620    -5.2560 H       118  POP112      0.0265
 15055 H10Y        33.4540    27.7470    -5.6390 H       118  POP112      0.0265
 15056 C311        33.4730    25.7560    -4.6210 C.3     118  POP112     -0.0531
 15057 H11X        34.4640    25.4560    -5.0000 H       118  POP112      0.0265
 15058 H11Y        32.8050    24.8900    -4.4310 H       118  POP112      0.0265
 15059 C312        33.5410    26.5630    -3.3210 C.3     118  POP112     -0.0531
 15060 H12X        33.6790    25.8110    -2.5540 H       118  POP112      0.0265
 15061 H12Y        32.5850    27.0610    -3.0080 H       118  POP112      0.0265
 15062 C313        34.6210    27.6110    -3.2140 C.3     118  POP112     -0.0531
 15063 H13X        34.5950    27.9980    -2.1750 H       118  POP112      0.0265
 15064 H13Y        34.4810    28.4120    -3.9660 H       118  POP112      0.0265
 15065 C314        36.0740    27.0480    -3.2450 C.3     118  POP112     -0.0533
 15066 H14X        36.2380    26.7930    -4.3200 H       118  POP112      0.0265
 15067 H14Y        36.1630    26.1570    -2.5310 H       118  POP112      0.0265
 15068 C315        37.0710    28.1860    -2.8910 C.3     118  POP112     -0.0559
 15069 H15X        36.5200    29.0980    -3.0370 H       118  POP112      0.0263
 15070 H15Y        38.0210    28.1470    -3.5410 H       118  POP112      0.0263
 15071 C316        37.5920    28.2050    -1.4460 C.3     118  POP112     -0.0653
 15072 H16X        38.3990    28.9890    -1.2400 H       118  POP112      0.0230
 15073 H16Y        37.9700    27.2040    -1.1660 H       118  POP112      0.0230
 15074 H16Z        36.8280    28.3000    -0.6240 H       118  POP112      0.0230
 15075 N          -15.8280   -15.8420   -17.9170 N.3     119  POP113      0.2385
 15076 C12        -16.1560   -14.7790   -18.8410 C.3     119  POP113     -0.0064
 15077 H12A       -15.6200   -14.9850   -19.8100 H       119  POP113      0.0838
 15078 H12B       -15.6990   -13.8960   -18.5580 H       119  POP113      0.0838
 15079 C13        -14.3840   -16.0940   -18.0570 C.3     119  POP113     -0.0417
 15080 H13A       -14.0660   -16.9320   -17.4270 H       119  POP113      0.0778
 15081 H13B       -13.9270   -16.2570   -19.0870 H       119  POP113      0.0778
 15082 H13C       -13.9970   -15.1960   -17.6970 H       119  POP113      0.0778
 15083 C14        -16.2020   -15.5490   -16.5010 C.3     119  POP113     -0.0417
 15084 H14A       -15.5210   -14.7940   -16.0860 H       119  POP113      0.0778
 15085 H14B       -17.1960   -15.0760   -16.3930 H       119  POP113      0.0778
 15086 H14C       -16.1440   -16.3330   -15.8450 H       119  POP113      0.0778
 15087 C15        -16.5880   -17.1700   -18.3700 C.3     119  POP113     -0.0417
 15088 H15A       -16.3320   -17.4760   -19.3330 H       119  POP113      0.0778
 15089 H15B       -17.6030   -16.8580   -18.3900 H       119  POP113      0.0778
 15090 H15C       -16.4790   -17.8630   -17.6200 H       119  POP113      0.0778
 15091 C11        -17.6240   -14.3890   -19.0640 C.3     119  POP113      0.0954
 15092 H11A       -17.7200   -13.5000   -19.7680 H       119  POP113      0.0618
 15093 H11B       -18.0070   -13.9850   -18.0480 H       119  POP113      0.0618
 15094 P          -19.7510   -15.7870   -18.8550 P.3     119  POP113      0.2645
 15095 O13        -20.1920   -17.1460   -19.2090 O.co2   119  POP113     -0.5105
 15096 O14        -20.6610   -14.6440   -19.0960 O.co2   119  POP113     -0.5105
 15097 O12        -18.4150   -15.4640   -19.5290 O.3     119  POP113     -0.3154
 15098 O11        -19.3030   -15.8980   -17.2850 O.3     119  POP113     -0.3181
 15099 C1         -20.2330   -16.4660   -16.3600 C.3     119  POP113      0.0845
 15100 HA         -20.6070   -17.5000   -16.7270 H       119  POP113      0.0591
 15101 HB         -21.1040   -15.8180   -16.0940 H       119  POP113      0.0591
 15102 C2         -19.4500   -16.6700   -14.9910 C.3     119  POP113      0.1155
 15103 HS         -20.1990   -16.7870   -14.1910 H       119  POP113      0.0649
 15104 O21        -18.5740   -15.5650   -14.7520 O.3     119  POP113     -0.3072
 15105 C21        -19.2010   -14.4320   -14.4420 C.2     119  POP113      0.2626
 15106 O22        -20.3920   -14.2670   -14.1480 O.2     119  POP113     -0.2650
 15107 C22        -18.2820   -13.3070   -14.3060 C.3     119  POP113      0.0332
 15108 H2R        -18.7660   -12.4690   -13.6890 H       119  POP113      0.0366
 15109 H2S        -18.1120   -12.9300   -15.3970 H       119  POP113      0.0366
 15110 C3         -18.5390   -17.9020   -15.1870 C.3     119  POP113      0.0860
 15111 HX         -17.6310   -17.6900   -15.7710 H       119  POP113      0.0593
 15112 HY         -19.0940   -18.6800   -15.7750 H       119  POP113      0.0593
 15113 O31        -18.1730   -18.5070   -13.9690 O.3     119  POP113     -0.3125
 15114 C31        -16.9080   -18.1940   -13.5290 C.2     119  POP113      0.2622
 15115 O32        -16.1760   -17.3560   -13.9600 O.2     119  POP113     -0.2650
 15116 C32        -16.5980   -19.1430   -12.3620 C.3     119  POP113      0.0332
 15117 H2X        -15.6530   -19.6740   -12.5870 H       119  POP113      0.0366
 15118 H2Y        -17.3710   -19.9190   -12.2650 H       119  POP113      0.0366
 15119 C23        -16.9530   -13.6340   -13.5670 C.3     119  POP113     -0.0441
 15120 H3R        -16.2610   -12.7750   -13.7050 H       119  POP113      0.0270
 15121 H3S        -16.4620   -14.5460   -13.9900 H       119  POP113      0.0270
 15122 C24        -17.1340   -13.8840   -12.0190 C.3     119  POP113     -0.0526
 15123 H4R        -17.9080   -14.6890   -12.0160 H       119  POP113      0.0265
 15124 H4S        -17.4930   -13.0380   -11.4940 H       119  POP113      0.0265
 15125 C25        -15.7900   -14.3300   -11.3720 C.3     119  POP113     -0.0530
 15126 H5R        -15.1060   -13.4450   -11.3510 H       119  POP113      0.0265
 15127 H5S        -15.4400   -15.1600   -11.9330 H       119  POP113      0.0265
 15128 C26        -15.8050   -14.8670    -9.9600 C.3     119  POP113     -0.0528
 15129 H6R        -14.8520   -15.1930    -9.5650 H       119  POP113      0.0265
 15130 H6S        -16.6170   -15.6210    -9.8610 H       119  POP113      0.0265
 15131 C27        -16.1190   -13.7300    -8.9280 C.3     119  POP113     -0.0496
 15132 H7R        -17.0140   -13.2500    -9.3640 H       119  POP113      0.0268
 15133 H7S        -15.4550   -12.8990    -8.9070 H       119  POP113      0.0268
 15134 C28        -16.4710   -14.1710    -7.4770 C.3     119  POP113     -0.0348
 15135 H8R        -15.6170   -14.6630    -7.0350 H       119  POP113      0.0307
 15136 H8S        -17.3450   -14.9330    -7.5550 H       119  POP113      0.0307
 15137 C29        -16.9270   -12.9900    -6.6880 C.2     119  POP113     -0.0879
 15138 H91        -17.8600   -12.6890    -7.0900 H       119  POP113      0.0569
 15139 C210       -16.1980   -12.2020    -5.8680 C.2     119  POP113     -0.0879
 15140 H101       -16.6220   -11.3660    -5.3130 H       119  POP113      0.0569
 15141 C211       -14.8260   -12.4940    -5.2930 C.3     119  POP113     -0.0348
 15142 H11R       -14.1890   -11.5960    -5.6210 H       119  POP113      0.0307
 15143 H11S       -14.3720   -13.3630    -5.6230 H       119  POP113      0.0307
 15144 C212       -14.6110   -12.4150    -3.6650 C.3     119  POP113     -0.0496
 15145 H12R       -15.0500   -11.5660    -3.2490 H       119  POP113      0.0268
 15146 H12S       -13.5190   -12.3180    -3.5070 H       119  POP113      0.0268
 15147 C213       -15.1420   -13.6690    -3.0130 C.3     119  POP113     -0.0528
 15148 H13R       -14.5570   -14.6080    -3.3650 H       119  POP113      0.0265
 15149 H13S       -16.2240   -13.8190    -3.3350 H       119  POP113      0.0265
 15150 C214       -15.0690   -13.4310    -1.5210 C.3     119  POP113     -0.0530
 15151 H14R       -15.6680   -12.5930    -1.0940 H       119  POP113      0.0265
 15152 H14S       -14.0060   -13.2870    -1.2660 H       119  POP113      0.0265
 15153 C215       -15.6300   -14.6960    -0.8050 C.3     119  POP113     -0.0531
 15154 H15R       -15.3330   -15.7130    -1.3750 H       119  POP113      0.0265
 15155 H15S       -16.7080   -14.6460    -0.9190 H       119  POP113      0.0265
 15156 C216       -15.2670   -14.6280     0.6660 C.3     119  POP113     -0.0533
 15157 H16R       -15.8860   -13.8370     1.0210 H       119  POP113      0.0265
 15158 H16S       -14.2610   -14.2950     0.8540 H       119  POP113      0.0265
 15159 C217       -15.6640   -15.8620     1.4880 C.3     119  POP113     -0.0559
 15160 H17R       -15.3360   -15.6880     2.6160 H       119  POP113      0.0263
 15161 H17S       -15.1110   -16.6940     1.0680 H       119  POP113      0.0263
 15162 C218       -17.1940   -16.2680     1.4180 C.3     119  POP113     -0.0653
 15163 H18R       -17.3690   -17.1250     2.0660 H       119  POP113      0.0230
 15164 H18S       -17.5360   -16.3390     0.3730 H       119  POP113      0.0230
 15165 H18T       -17.7350   -15.4090     1.7450 H       119  POP113      0.0230
 15166 C33        -16.4540   -18.3730   -11.0410 C.3     119  POP113     -0.0441
 15167 H3X        -17.2720   -17.6880   -10.8120 H       119  POP113      0.0270
 15168 H3Y        -15.6870   -17.6070   -11.2400 H       119  POP113      0.0270
 15169 C34        -15.9330   -19.3460    -9.9390 C.3     119  POP113     -0.0526
 15170 H4X        -15.0790   -19.8190   -10.4140 H       119  POP113      0.0265
 15171 H4Y        -16.6420   -20.1900    -9.6260 H       119  POP113      0.0265
 15172 C35        -15.4410   -18.7550    -8.6530 C.3     119  POP113     -0.0530
 15173 H5X        -14.6010   -18.0010    -8.8450 H       119  POP113      0.0265
 15174 H5Y        -15.0750   -19.6470    -8.0340 H       119  POP113      0.0265
 15175 C36        -16.4790   -18.1620    -7.8020 C.3     119  POP113     -0.0531
 15176 H6X        -17.1470   -18.9670    -7.4380 H       119  POP113      0.0265
 15177 H6Y        -17.0510   -17.4120    -8.4400 H       119  POP113      0.0265
 15178 C37        -15.8450   -17.3960    -6.6120 C.3     119  POP113     -0.0531
 15179 H7X        -16.6630   -16.7330    -6.1460 H       119  POP113      0.0265
 15180 H7Y        -15.0860   -16.7470    -6.9880 H       119  POP113      0.0265
 15181 C38        -15.2260   -18.3330    -5.6240 C.3     119  POP113     -0.0531
 15182 H8X        -14.7280   -19.1570    -6.1410 H       119  POP113      0.0265
 15183 H8Y        -16.0780   -18.8490    -5.0480 H       119  POP113      0.0265
 15184 C39        -14.3550   -17.5930    -4.5670 C.3     119  POP113     -0.0531
 15185 H9X        -15.0260   -17.0190    -3.8820 H       119  POP113      0.0265
 15186 H9Y        -13.6740   -16.8450    -4.9770 H       119  POP113      0.0265
 15187 C310       -13.4890   -18.5760    -3.7720 C.3     119  POP113     -0.0531
 15188 H10X       -14.0280   -19.4300    -3.2740 H       119  POP113      0.0265
 15189 H10Y       -13.0800   -18.1110    -2.8700 H       119  POP113      0.0265
 15190 C311       -12.3260   -19.2040    -4.6680 C.3     119  POP113     -0.0531
 15191 H11X       -11.9820   -18.3590    -5.3920 H       119  POP113      0.0265
 15192 H11Y       -12.6200   -20.0900    -5.2110 H       119  POP113      0.0265
 15193 C312       -11.1350   -19.7340    -3.9280 C.3     119  POP113     -0.0531
 15194 H12X       -10.4970   -18.9550    -3.6000 H       119  POP113      0.0265
 15195 H12Y       -10.4440   -20.3610    -4.5510 H       119  POP113      0.0265
 15196 C313       -11.4800   -20.6390    -2.7320 C.3     119  POP113     -0.0531
 15197 H13X       -12.2520   -21.3970    -3.0170 H       119  POP113      0.0265
 15198 H13Y       -11.9490   -19.9620    -2.0310 H       119  POP113      0.0265
 15199 C314       -10.2230   -21.2690    -2.0340 C.3     119  POP113     -0.0533
 15200 H14X        -9.4660   -20.4660    -1.7440 H       119  POP113      0.0265
 15201 H14Y        -9.7310   -21.9770    -2.7100 H       119  POP113      0.0265
 15202 C315       -10.6120   -22.0170    -0.7960 C.3     119  POP113     -0.0559
 15203 H15X       -11.4130   -22.7250    -1.0190 H       119  POP113      0.0263
 15204 H15Y       -11.1220   -21.3520    -0.1880 H       119  POP113      0.0263
 15205 C316        -9.5150   -22.7700    -0.0080 C.3     119  POP113     -0.0653
 15206 H16X        -8.9370   -23.3910    -0.7340 H       119  POP113      0.0230
 15207 H16Y        -9.9250   -23.3970     0.8260 H       119  POP113      0.0230
 15208 H16Z        -8.7480   -22.0420     0.3520 H       119  POP113      0.0230
 15209 N          -26.6610    32.0160   -24.2710 N.3     120  POP114      0.2385
 15210 C12        -26.8640    33.0740   -25.3520 C.3     120  POP114     -0.0064
 15211 H12A       -26.6720    32.6090   -26.3400 H       120  POP114      0.0838
 15212 H12B       -26.0220    33.7690   -25.1480 H       120  POP114      0.0838
 15213 C13        -25.4350    31.1560   -24.5020 C.3     120  POP114     -0.0417
 15214 H13A       -25.5640    30.5030   -25.3680 H       120  POP114      0.0778
 15215 H13B       -24.5480    31.7330   -24.7930 H       120  POP114      0.0778
 15216 H13C       -25.1130    30.5630   -23.6850 H       120  POP114      0.0778
 15217 C14        -26.7170    32.5800   -22.9090 C.3     120  POP114     -0.0417
 15218 H14A       -25.9560    33.3550   -22.7140 H       120  POP114      0.0778
 15219 H14B       -27.6560    33.0630   -22.7510 H       120  POP114      0.0778
 15220 H14C       -26.7300    31.8290   -22.1150 H       120  POP114      0.0778
 15221 C15        -27.8090    31.0790   -24.3060 C.3     120  POP114     -0.0417
 15222 H15A       -27.8810    30.4550   -25.1750 H       120  POP114      0.0778
 15223 H15B       -28.7190    31.5470   -24.0490 H       120  POP114      0.0778
 15224 H15C       -27.6760    30.3610   -23.4660 H       120  POP114      0.0778
 15225 C11        -28.1830    33.9710   -25.4310 C.3     120  POP114      0.0954
 15226 H11A       -28.9920    33.3040   -25.7610 H       120  POP114      0.0618
 15227 H11B       -28.0620    34.7370   -26.2470 H       120  POP114      0.0618
 15228 P          -29.7610    35.2040   -23.7440 P.3     120  POP114      0.2645
 15229 O13        -30.7140    34.0750   -23.6760 O.co2   120  POP114     -0.5105
 15230 O14        -30.0040    36.3400   -24.6640 O.co2   120  POP114     -0.5105
 15231 O12        -28.3780    34.6790   -24.1640 O.3     120  POP114     -0.3154
 15232 O11        -29.7160    35.7950   -22.3230 O.3     120  POP114     -0.3181
 15233 C1         -28.5970    35.5830   -21.4560 C.3     120  POP114      0.0845
 15234 HA         -27.6280    35.8390   -21.9880 H       120  POP114      0.0591
 15235 HB         -28.6200    34.4920   -21.2370 H       120  POP114      0.0591
 15236 C2         -28.5680    36.5200   -20.1450 C.3     120  POP114      0.1155
 15237 HS         -27.5250    36.4350   -19.6270 H       120  POP114      0.0649
 15238 O21        -29.6290    36.1210   -19.2580 O.3     120  POP114     -0.3072
 15239 C21        -29.1910    35.0970   -18.4700 C.2     120  POP114      0.2626
 15240 O22        -28.1660    34.4240   -18.5750 O.2     120  POP114     -0.2650
 15241 C22        -30.2560    34.8500   -17.4040 C.3     120  POP114      0.0332
 15242 H2R        -31.1200    34.3390   -17.9320 H       120  POP114      0.0366
 15243 H2S        -30.6260    35.8990   -16.9730 H       120  POP114      0.0366
 15244 C3         -28.6960    38.0650   -20.5260 C.3     120  POP114      0.0860
 15245 HX         -29.6070    38.1040   -21.1380 H       120  POP114      0.0593
 15246 HY         -27.7770    38.4290   -21.1040 H       120  POP114      0.0593
 15247 O31        -28.8780    38.8470   -19.3620 O.3     120  POP114     -0.3125
 15248 C31        -30.0730    39.4690   -19.1390 C.2     120  POP114      0.2622
 15249 O32        -31.0790    39.1950   -19.7500 O.2     120  POP114     -0.2650
 15250 C32        -30.1400    40.3570   -17.9260 C.3     120  POP114      0.0332
 15251 H2X        -31.2340    40.5000   -17.5270 H       120  POP114      0.0366
 15252 H2Y        -29.7070    41.3850   -18.2390 H       120  POP114      0.0366
 15253 C23        -29.9080    33.9200   -16.2830 C.3     120  POP114     -0.0441
 15254 H3R        -28.8540    34.0790   -16.0500 H       120  POP114      0.0270
 15255 H3S        -29.9820    32.8780   -16.6360 H       120  POP114      0.0270
 15256 C24        -30.9080    34.1060   -15.1280 C.3     120  POP114     -0.0526
 15257 H4R        -31.9020    33.6510   -15.3560 H       120  POP114      0.0265
 15258 H4S        -31.1740    35.1340   -14.9520 H       120  POP114      0.0265
 15259 C25        -30.4200    33.5090   -13.7660 C.3     120  POP114     -0.0530
 15260 H5R        -31.0610    33.9520   -12.9690 H       120  POP114      0.0265
 15261 H5S        -29.3560    33.7700   -13.5560 H       120  POP114      0.0265
 15262 C26        -30.4390    31.9840   -13.7250 C.3     120  POP114     -0.0528
 15263 H6R        -29.5250    31.5580   -14.2980 H       120  POP114      0.0265
 15264 H6S        -31.2810    31.5880   -14.3600 H       120  POP114      0.0265
 15265 C27        -30.3540    31.4380   -12.3360 C.3     120  POP114     -0.0496
 15266 H7R        -31.0740    31.9120   -11.6970 H       120  POP114      0.0268
 15267 H7S        -29.2700    31.5670   -11.9110 H       120  POP114      0.0268
 15268 C28        -30.5600    29.8700   -12.3320 C.3     120  POP114     -0.0348
 15269 H8R        -29.7220    29.5080   -12.9700 H       120  POP114      0.0307
 15270 H8S        -31.4740    29.5850   -12.8630 H       120  POP114      0.0307
 15271 C29        -30.5630    29.4000   -10.9010 C.2     120  POP114     -0.0879
 15272 H91        -31.1280    30.0360   -10.1620 H       120  POP114      0.0569
 15273 C210       -30.0030    28.2840   -10.4370 C.2     120  POP114     -0.0879
 15274 H101       -30.0310    28.0640    -9.4080 H       120  POP114      0.0569
 15275 C211       -29.1940    27.2540   -11.2290 C.3     120  POP114     -0.0348
 15276 H11R       -29.7810    27.0050   -12.1960 H       120  POP114      0.0307
 15277 H11S       -29.1100    26.2960   -10.6180 H       120  POP114      0.0307
 15278 C212       -27.7490    27.6580   -11.4470 C.3     120  POP114     -0.0496
 15279 H12R       -27.4060    28.0360   -10.4250 H       120  POP114      0.0268
 15280 H12S       -27.5780    28.5600   -12.1000 H       120  POP114      0.0268
 15281 C213       -26.9010    26.4700   -11.8690 C.3     120  POP114     -0.0528
 15282 H13R       -27.3410    25.9830   -12.7570 H       120  POP114      0.0265
 15283 H13S       -26.9080    25.7660   -11.0040 H       120  POP114      0.0265
 15284 C214       -25.3910    26.8390   -12.2130 C.3     120  POP114     -0.0530
 15285 H14R       -25.4660    27.9070   -12.5920 H       120  POP114      0.0265
 15286 H14S       -25.0310    26.1660   -13.0690 H       120  POP114      0.0265
 15287 C215       -24.3740    26.6840   -11.0750 C.3     120  POP114     -0.0531
 15288 H15R       -24.8280    26.0010   -10.3120 H       120  POP114      0.0265
 15289 H15S       -24.2710    27.5820   -10.4480 H       120  POP114      0.0265
 15290 C216       -22.9890    26.1320   -11.4880 C.3     120  POP114     -0.0533
 15291 H16R       -23.0810    25.0890   -11.7500 H       120  POP114      0.0265
 15292 H16S       -22.2380    26.1370   -10.7030 H       120  POP114      0.0265
 15293 C217       -22.3450    26.8910   -12.7120 C.3     120  POP114     -0.0559
 15294 H17R       -22.2040    27.9380   -12.3030 H       120  POP114      0.0263
 15295 H17S       -23.1820    26.9470   -13.4050 H       120  POP114      0.0263
 15296 C218       -21.1040    26.1220   -13.1800 C.3     120  POP114     -0.0653
 15297 H18R       -20.3190    26.5560   -13.7540 H       120  POP114      0.0230
 15298 H18S       -21.3150    25.1020   -13.5040 H       120  POP114      0.0230
 15299 H18T       -20.5880    25.8950   -12.2160 H       120  POP114      0.0230
 15300 C33        -29.1700    40.0120   -16.7590 C.3     120  POP114     -0.0441
 15301 H3X        -28.8390    41.0290   -16.3210 H       120  POP114      0.0270
 15302 H3Y        -28.2040    39.6720   -17.1670 H       120  POP114      0.0270
 15303 C34        -29.8250    39.0300   -15.7910 C.3     120  POP114     -0.0526
 15304 H4X        -30.3680    38.2310   -16.3350 H       120  POP114      0.0265
 15305 H4Y        -30.7520    39.5300   -15.3870 H       120  POP114      0.0265
 15306 C35        -29.0140    38.4550   -14.6780 C.3     120  POP114     -0.0530
 15307 H5X        -29.7330    37.8470   -14.0270 H       120  POP114      0.0265
 15308 H5Y        -28.4960    39.2640   -14.0730 H       120  POP114      0.0265
 15309 C36        -27.9490    37.4780   -15.1470 C.3     120  POP114     -0.0531
 15310 H6X        -27.1640    37.9730   -15.8130 H       120  POP114      0.0265
 15311 H6Y        -28.4630    36.7670   -15.8500 H       120  POP114      0.0265
 15312 C37        -27.3550    36.7910   -13.9180 C.3     120  POP114     -0.0531
 15313 H7X        -28.1230    36.1090   -13.4160 H       120  POP114      0.0265
 15314 H7Y        -27.2260    37.6590   -13.2940 H       120  POP114      0.0265
 15315 C38        -25.9650    36.0990   -14.0720 C.3     120  POP114     -0.0531
 15316 H8X        -25.2250    36.8950   -14.3800 H       120  POP114      0.0265
 15317 H8Y        -26.1350    35.3890   -14.9630 H       120  POP114      0.0265
 15318 C39        -25.4860    35.3090   -12.8240 C.3     120  POP114     -0.0531
 15319 H9X        -24.4930    34.8830   -13.1530 H       120  POP114      0.0265
 15320 H9Y        -26.2250    34.5200   -12.6460 H       120  POP114      0.0265
 15321 C310       -25.3500    36.1550   -11.5030 C.3     120  POP114     -0.0531
 15322 H10X       -26.3700    36.3960   -11.1740 H       120  POP114      0.0265
 15323 H10Y       -24.9570    37.1300   -11.6530 H       120  POP114      0.0265
 15324 C311       -24.6610    35.4450   -10.2680 C.3     120  POP114     -0.0531
 15325 H11X       -23.5970    35.4060   -10.4540 H       120  POP114      0.0265
 15326 H11Y       -25.1130    34.4280   -10.1910 H       120  POP114      0.0265
 15327 C312       -24.8950    36.0900    -8.9540 C.3     120  POP114     -0.0531
 15328 H12X       -24.5960    35.3370    -8.1230 H       120  POP114      0.0265
 15329 H12Y       -25.9980    36.1400    -8.7630 H       120  POP114      0.0265
 15330 C313       -24.3200    37.5000    -8.8060 C.3     120  POP114     -0.0531
 15331 H13X       -24.8120    38.2320    -9.4760 H       120  POP114      0.0265
 15332 H13Y       -23.2330    37.4710    -9.0330 H       120  POP114      0.0265
 15333 C314       -24.5940    38.0930    -7.3980 C.3     120  POP114     -0.0533
 15334 H14X       -24.2250    37.4220    -6.6100 H       120  POP114      0.0265
 15335 H14Y       -25.6800    38.1630    -7.3030 H       120  POP114      0.0265
 15336 C315       -24.1670    39.5420    -7.1790 C.3     120  POP114     -0.0559
 15337 H15X       -24.5830    39.9780    -6.2860 H       120  POP114      0.0263
 15338 H15Y       -24.4670    40.1010    -8.0550 H       120  POP114      0.0263
 15339 C316       -22.6300    39.5290    -7.0670 C.3     120  POP114     -0.0653
 15340 H16X       -22.2700    40.0250    -8.0260 H       120  POP114      0.0230
 15341 H16Y       -22.2080    38.5400    -7.0530 H       120  POP114      0.0230
 15342 H16Z       -22.3020    40.2050    -6.2370 H       120  POP114      0.0230
 15343 N           24.3940   -13.2850   -17.9550 N.3     121  POP115      0.2385
 15344 C12         23.6480   -13.4600   -16.6550 C.3     121  POP115     -0.0064
 15345 H12A        24.0430   -12.7740   -15.8650 H       121  POP115      0.0838
 15346 H12B        23.8810   -14.5220   -16.1880 H       121  POP115      0.0838
 15347 C13         23.8650   -14.2580   -18.9590 C.3     121  POP115     -0.0417
 15348 H13A        22.9410   -13.9700   -19.3510 H       121  POP115      0.0778
 15349 H13B        24.5510   -14.4390   -19.7600 H       121  POP115      0.0778
 15350 H13C        23.6580   -15.3170   -18.5870 H       121  POP115      0.0778
 15351 C14         24.4150   -11.8790   -18.4160 C.3     121  POP115     -0.0417
 15352 H14A        24.3680   -11.0930   -17.6000 H       121  POP115      0.0778
 15353 H14B        25.2640   -11.6240   -19.0190 H       121  POP115      0.0778
 15354 H14C        23.4660   -11.7980   -18.9970 H       121  POP115      0.0778
 15355 C15         25.8500   -13.7530   -17.4990 C.3     121  POP115     -0.0417
 15356 H15A        26.2230   -13.0910   -16.7620 H       121  POP115      0.0778
 15357 H15B        26.5090   -13.8980   -18.3400 H       121  POP115      0.0778
 15358 H15C        25.8620   -14.7380   -16.9360 H       121  POP115      0.0778
 15359 C11         22.1190   -13.3080   -16.6760 C.3     121  POP115      0.0954
 15360 H11A        21.8320   -12.3300   -17.1620 H       121  POP115      0.0618
 15361 H11B        21.7150   -13.2810   -15.6490 H       121  POP115      0.0618
 15362 P           21.1010   -15.6850   -16.5690 P.3     121  POP115      0.2645
 15363 O13         22.3000   -16.4130   -16.1450 O.co2   121  POP115     -0.5105
 15364 O14         20.1680   -16.4600   -17.3630 O.co2   121  POP115     -0.5105
 15365 O12         21.5070   -14.3970   -17.3980 O.3     121  POP115     -0.3154
 15366 O11         20.2940   -15.0010   -15.3980 O.3     121  POP115     -0.3181
 15367 C1          19.5890   -15.8270   -14.4500 C.3     121  POP115      0.0845
 15368 HA          19.1460   -16.7580   -14.8770 H       121  POP115      0.0591
 15369 HB          18.6840   -15.2040   -14.2320 H       121  POP115      0.0591
 15370 C2          20.4020   -16.2020   -13.1800 C.3     121  POP115      0.1155
 15371 HS          21.2610   -16.8620   -13.5170 H       121  POP115      0.0649
 15372 O21         19.5110   -16.9460   -12.3120 O.3     121  POP115     -0.3072
 15373 C21         19.2180   -18.1540   -12.5990 C.2     121  POP115      0.2626
 15374 O22         19.4820   -18.7590   -13.6280 O.2     121  POP115     -0.2650
 15375 C22         18.4620   -18.7590   -11.4680 C.3     121  POP115      0.0332
 15376 H2R         18.5310   -19.8070   -11.7400 H       121  POP115      0.0366
 15377 H2S         17.4370   -18.4170   -11.5920 H       121  POP115      0.0366
 15378 C3          20.8350   -14.8340   -12.5220 C.3     121  POP115      0.0860
 15379 HX          19.9290   -14.1130   -12.6760 H       121  POP115      0.0593
 15380 HY          21.7190   -14.3750   -13.0670 H       121  POP115      0.0593
 15381 O31         21.0170   -15.0100   -11.1280 O.3     121  POP115     -0.3125
 15382 C31         22.2640   -15.3990   -10.8350 C.2     121  POP115      0.2622
 15383 O32         23.1900   -15.4400   -11.6520 O.2     121  POP115     -0.2650
 15384 C32         22.3530   -15.8790    -9.3640 C.3     121  POP115      0.0332
 15385 H2X         22.2380   -16.9450    -9.3580 H       121  POP115      0.0366
 15386 H2Y         21.4040   -15.6590    -8.7470 H       121  POP115      0.0366
 15387 C23         19.0500   -18.3940   -10.1000 C.3     121  POP115     -0.0441
 15388 H3R         18.7860   -17.3460    -9.8300 H       121  POP115      0.0270
 15389 H3S         20.0780   -18.6070   -10.1510 H       121  POP115      0.0270
 15390 C24         18.4510   -19.3520    -9.0670 C.3     121  POP115     -0.0526
 15391 H4R         18.4980   -20.3250    -9.5740 H       121  POP115      0.0265
 15392 H4S         17.3750   -19.0870    -8.9100 H       121  POP115      0.0265
 15393 C25         19.1730   -19.4780    -7.6820 C.3     121  POP115     -0.0530
 15394 H5R         20.2930   -19.4780    -7.8200 H       121  POP115      0.0265
 15395 H5S         18.9420   -20.5010    -7.3800 H       121  POP115      0.0265
 15396 C26         18.6410   -18.5180    -6.6300 C.3     121  POP115     -0.0528
 15397 H6R         17.5270   -18.6020    -6.5650 H       121  POP115      0.0265
 15398 H6S         18.8690   -17.5130    -6.7940 H       121  POP115      0.0265
 15399 C27         19.0940   -18.9010    -5.1440 C.3     121  POP115     -0.0496
 15400 H7R         18.8550   -18.0390    -4.4250 H       121  POP115      0.0268
 15401 H7S         20.2330   -18.9070    -5.3320 H       121  POP115      0.0268
 15402 C28         18.5660   -20.2410    -4.5710 C.3     121  POP115     -0.0348
 15403 H8R         19.0870   -21.0980    -5.0200 H       121  POP115      0.0307
 15404 H8S         17.5090   -20.2250    -4.9110 H       121  POP115      0.0307
 15405 C29         18.5130   -20.4600    -3.0030 C.2     121  POP115     -0.0879
 15406 H91         17.5870   -20.1930    -2.4780 H       121  POP115      0.0569
 15407 C210        19.2290   -21.2940    -2.2780 C.2     121  POP115     -0.0879
 15408 H101        19.0290   -21.4550    -1.2320 H       121  POP115      0.0569
 15409 C211        20.5400   -21.9820    -2.6200 C.3     121  POP115     -0.0348
 15410 H11R        21.3670   -21.5750    -2.0080 H       121  POP115      0.0307
 15411 H11S        20.8330   -21.9310    -3.6900 H       121  POP115      0.0307
 15412 C212        20.3720   -23.4740    -2.2190 C.3     121  POP115     -0.0496
 15413 H12R        19.5710   -23.9130    -2.7770 H       121  POP115      0.0268
 15414 H12S        20.3450   -23.5900    -1.1240 H       121  POP115      0.0268
 15415 C213        21.6970   -24.2470    -2.4570 C.3     121  POP115     -0.0528
 15416 H13R        22.5390   -23.6830    -2.1820 H       121  POP115      0.0265
 15417 H13S        21.8110   -24.4080    -3.5510 H       121  POP115      0.0265
 15418 C214        21.9340   -25.4970    -1.6880 C.3     121  POP115     -0.0530
 15419 H14R        21.0690   -26.2360    -1.8360 H       121  POP115      0.0265
 15420 H14S        21.8740   -25.3100    -0.5930 H       121  POP115      0.0265
 15421 C215        23.2430   -26.2430    -1.9460 C.3     121  POP115     -0.0531
 15422 H15R        23.3880   -26.3420    -3.0480 H       121  POP115      0.0265
 15423 H15S        23.0340   -27.3130    -1.5960 H       121  POP115      0.0265
 15424 C216        24.4940   -25.7610    -1.1270 C.3     121  POP115     -0.0533
 15425 H16R        24.1510   -25.7730    -0.0150 H       121  POP115      0.0265
 15426 H16S        24.7570   -24.7430    -1.4540 H       121  POP115      0.0265
 15427 C217        25.6280   -26.8720    -1.2420 C.3     121  POP115     -0.0559
 15428 H17R        26.5230   -26.4760    -0.6610 H       121  POP115      0.0263
 15429 H17S        25.9150   -26.9600    -2.3130 H       121  POP115      0.0263
 15430 C218        25.1480   -28.1610    -0.5820 C.3     121  POP115     -0.0653
 15431 H18R        24.7990   -28.0480     0.3990 H       121  POP115      0.0230
 15432 H18S        25.8920   -28.9050    -0.5420 H       121  POP115      0.0230
 15433 H18T        24.4250   -28.7320    -1.2450 H       121  POP115      0.0230
 15434 C33         23.6500   -15.3410    -8.6990 C.3     121  POP115     -0.0441
 15435 H3X         23.4780   -14.2690    -8.5270 H       121  POP115      0.0270
 15436 H3Y         24.5000   -15.3540    -9.4190 H       121  POP115      0.0270
 15437 C34         23.9860   -16.1360    -7.4620 C.3     121  POP115     -0.0526
 15438 H4X         25.0920   -16.1700    -7.3220 H       121  POP115      0.0265
 15439 H4Y         23.4950   -17.1260    -7.6410 H       121  POP115      0.0265
 15440 C35         23.3890   -15.5460    -6.2000 C.3     121  POP115     -0.0530
 15441 H5X         22.4310   -15.0200    -6.3640 H       121  POP115      0.0265
 15442 H5Y         24.0290   -14.6610    -6.0110 H       121  POP115      0.0265
 15443 C36         23.4110   -16.5980    -5.0100 C.3     121  POP115     -0.0531
 15444 H6X         24.1900   -16.4870    -4.3130 H       121  POP115      0.0265
 15445 H6Y         23.6880   -17.5640    -5.4820 H       121  POP115      0.0265
 15446 C37         22.0900   -16.6010    -4.2150 C.3     121  POP115     -0.0531
 15447 H7X         21.2270   -17.0130    -4.8110 H       121  POP115      0.0265
 15448 H7Y         21.8220   -15.5530    -3.9930 H       121  POP115      0.0265
 15449 C38         22.1130   -17.3880    -2.9600 C.3     121  POP115     -0.0531
 15450 H8X         22.9610   -17.0750    -2.2870 H       121  POP115      0.0265
 15451 H8Y         22.4910   -18.4010    -3.2750 H       121  POP115      0.0265
 15452 C39         20.8600   -17.3550    -2.1320 C.3     121  POP115     -0.0531
 15453 H9X         20.0880   -17.8990    -2.7660 H       121  POP115      0.0265
 15454 H9Y         20.4030   -16.3350    -1.8710 H       121  POP115      0.0265
 15455 C310        20.9330   -18.3430    -0.9200 C.3     121  POP115     -0.0531
 15456 H10X        21.7510   -17.9700    -0.1860 H       121  POP115      0.0265
 15457 H10Y        21.2700   -19.3490    -1.2850 H       121  POP115      0.0265
 15458 C311        19.5420   -18.3020    -0.2300 C.3     121  POP115     -0.0531
 15459 H11X        18.8350   -18.8840    -0.8540 H       121  POP115      0.0265
 15460 H11Y        19.2340   -17.2910     0.0260 H       121  POP115      0.0265
 15461 C312        19.7240   -19.1820     1.0600 C.3     121  POP115     -0.0531
 15462 H12X        20.5560   -19.8370     0.9630 H       121  POP115      0.0265
 15463 H12Y        18.8190   -19.8270     1.1480 H       121  POP115      0.0265
 15464 C313        19.8450   -18.2450     2.2800 C.3     121  POP115     -0.0531
 15465 H13X        18.9890   -17.5860     2.3920 H       121  POP115      0.0265
 15466 H13Y        20.7530   -17.5560     2.1210 H       121  POP115      0.0265
 15467 C314        19.9820   -18.8850     3.6120 C.3     121  POP115     -0.0533
 15468 H14X        21.0320   -19.1430     3.7150 H       121  POP115      0.0265
 15469 H14Y        19.4010   -19.8490     3.6430 H       121  POP115      0.0265
 15470 C315        19.6370   -18.0310     4.8360 C.3     121  POP115     -0.0559
 15471 H15X        18.5910   -18.1580     4.9560 H       121  POP115      0.0263
 15472 H15Y        19.9110   -16.9590     4.6040 H       121  POP115      0.0263
 15473 C316        20.3630   -18.4890     6.0830 C.3     121  POP115     -0.0653
 15474 H16X        20.1070   -17.8630     6.9980 H       121  POP115      0.0230
 15475 H16Y        21.4630   -18.2120     6.0490 H       121  POP115      0.0230
 15476 H16Z        20.2070   -19.5610     6.3220 H       121  POP115      0.0230
 15477 N            5.8200    -5.6440   -14.1330 N.3     122  POP116      0.2385
 15478 C12          5.0520    -5.7900   -12.8110 C.3     122  POP116     -0.0064
 15479 H12A         4.7610    -4.8130   -12.4760 H       122  POP116      0.0838
 15480 H12B         5.7220    -6.1060   -12.0290 H       122  POP116      0.0838
 15481 C13          6.7640    -4.5840   -13.9100 C.3     122  POP116     -0.0417
 15482 H13A         7.3240    -4.6810   -12.9310 H       122  POP116      0.0778
 15483 H13B         7.5840    -4.5240   -14.6390 H       122  POP116      0.0778
 15484 H13C         6.2930    -3.5970   -13.8120 H       122  POP116      0.0778
 15485 C14          6.5010    -6.9440   -14.5140 C.3     122  POP116     -0.0417
 15486 H14A         5.7380    -7.7210   -14.5530 H       122  POP116      0.0778
 15487 H14B         6.9660    -6.9150   -15.4700 H       122  POP116      0.0778
 15488 H14C         7.2340    -7.2300   -13.7390 H       122  POP116      0.0778
 15489 C15          4.9570    -5.2930   -15.2240 C.3     122  POP116     -0.0417
 15490 H15A         4.6620    -4.2010   -15.1320 H       122  POP116      0.0778
 15491 H15B         4.0980    -5.9370   -15.4010 H       122  POP116      0.0778
 15492 H15C         5.5330    -5.2970   -16.1110 H       122  POP116      0.0778
 15493 C11          3.8350    -6.7250   -12.7500 C.3     122  POP116      0.0954
 15494 H11A         3.3800    -6.8000   -11.7380 H       122  POP116      0.0618
 15495 H11B         4.1190    -7.7650   -12.9580 H       122  POP116      0.0618
 15496 P            1.8260    -7.1480   -14.4190 P.3     122  POP116      0.2645
 15497 O13          2.6150    -7.7300   -15.5030 O.co2   122  POP116     -0.5105
 15498 O14          0.6320    -6.4100   -14.8860 O.co2   122  POP116     -0.5105
 15499 O12          2.8210    -6.2170   -13.6540 O.3     122  POP116     -0.3154
 15500 O11          1.4530    -8.2400   -13.4270 O.3     122  POP116     -0.3181
 15501 C1           0.2200    -8.4020   -12.7400 C.3     122  POP116      0.0845
 15502 HA          -0.5900    -8.5800   -13.4390 H       122  POP116      0.0591
 15503 HB          -0.0600    -7.4860   -12.1940 H       122  POP116      0.0591
 15504 C2           0.1130    -9.6690   -11.8780 C.3     122  POP116      0.1155
 15505 HS          -0.8980    -9.8380   -11.3940 H       122  POP116      0.0649
 15506 O21          1.2920    -9.7610   -10.9630 O.3     122  POP116     -0.3072
 15507 C21          1.2010    -8.8050   -10.0190 C.2     122  POP116      0.2626
 15508 O22          0.2370    -8.1460    -9.7730 O.2     122  POP116     -0.2650
 15509 C22          2.4900    -8.6670    -9.1990 C.3     122  POP116      0.0332
 15510 H2R          3.2180    -8.1460    -9.7040 H       122  POP116      0.0366
 15511 H2S          2.8660    -9.6400    -8.8550 H       122  POP116      0.0366
 15512 C3           0.1360   -10.9060   -12.7890 C.3     122  POP116      0.0860
 15513 HX           1.1370   -10.9810   -13.1720 H       122  POP116      0.0593
 15514 HY          -0.6320   -10.7840   -13.6930 H       122  POP116      0.0593
 15515 O31         -0.2470   -12.0670   -12.0970 O.3     122  POP116     -0.3125
 15516 C31         -0.3150   -13.1510   -12.8570 C.2     122  POP116      0.2622
 15517 O32         -0.0340   -13.1800   -14.0170 O.2     122  POP116     -0.2650
 15518 C32         -0.9910   -14.2340   -12.0240 C.3     122  POP116      0.0332
 15519 H2X         -2.0160   -14.3340   -12.3660 H       122  POP116      0.0366
 15520 H2Y         -0.9770   -13.9750   -10.9540 H       122  POP116      0.0366
 15521 C23          2.3340    -7.8100    -7.9330 C.3     122  POP116     -0.0441
 15522 H3R          1.7020    -8.4250    -7.1950 H       122  POP116      0.0270
 15523 H3S          1.7250    -6.9120    -8.1370 H       122  POP116      0.0270
 15524 C24          3.6510    -7.3010    -7.3080 C.3     122  POP116     -0.0526
 15525 H4R          4.0290    -6.3810    -7.8170 H       122  POP116      0.0265
 15526 H4S          4.4620    -8.0240    -7.5660 H       122  POP116      0.0265
 15527 C25          3.4640    -7.1180    -5.8560 C.3     122  POP116     -0.0530
 15528 H5R          2.6690    -6.5190    -5.5580 H       122  POP116      0.0265
 15529 H5S          4.2910    -6.5060    -5.4150 H       122  POP116      0.0265
 15530 C26          3.5130    -8.4760    -5.1310 C.3     122  POP116     -0.0528
 15531 H6R          4.4100    -9.0040    -5.5000 H       122  POP116      0.0265
 15532 H6S          2.7060    -9.1190    -5.4100 H       122  POP116      0.0265
 15533 C27          3.5290    -8.3050    -3.5360 C.3     122  POP116     -0.0496
 15534 H7R          2.5870    -7.8730    -3.1390 H       122  POP116      0.0268
 15535 H7S          4.3660    -7.5510    -3.3270 H       122  POP116      0.0268
 15536 C28          3.6860    -9.7570    -2.9230 C.3     122  POP116     -0.0348
 15537 H8R          4.4670   -10.2710    -3.5420 H       122  POP116      0.0307
 15538 H8S          2.6830   -10.2450    -2.9060 H       122  POP116      0.0307
 15539 C29          4.3230    -9.5470    -1.5420 C.2     122  POP116     -0.0879
 15540 H91          4.1110    -8.6100    -0.9970 H       122  POP116      0.0569
 15541 C210         5.2940   -10.3030    -0.9830 C.2     122  POP116     -0.0879
 15542 H101         5.5940   -10.0580     0.0650 H       122  POP116      0.0569
 15543 C211         6.1180   -11.4270    -1.5440 C.3     122  POP116     -0.0348
 15544 H11R         6.3080   -11.2360    -2.6380 H       122  POP116      0.0307
 15545 H11S         5.5480   -12.4220    -1.5630 H       122  POP116      0.0307
 15546 C212         7.4210   -11.6340    -0.7820 C.3     122  POP116     -0.0496
 15547 H12R         7.8890   -10.6510    -0.4740 H       122  POP116      0.0268
 15548 H12S         8.0680   -12.2690    -1.4560 H       122  POP116      0.0268
 15549 C213         7.3110   -12.2740     0.5920 C.3     122  POP116     -0.0528
 15550 H13R         6.7980   -11.6900     1.3710 H       122  POP116      0.0265
 15551 H13S         8.3790   -12.3770     0.9490 H       122  POP116      0.0265
 15552 C214         6.7050   -13.7430     0.7520 C.3     122  POP116     -0.0530
 15553 H14R         7.3640   -14.4900     0.0930 H       122  POP116      0.0265
 15554 H14S         5.6490   -13.6730     0.3700 H       122  POP116      0.0265
 15555 C215         6.7780   -14.2800     2.2320 C.3     122  POP116     -0.0531
 15556 H15R         6.1260   -13.6140     2.7930 H       122  POP116      0.0265
 15557 H15S         7.8490   -14.2940     2.5590 H       122  POP116      0.0265
 15558 C216         5.9930   -15.6280     2.3370 C.3     122  POP116     -0.0533
 15559 H16R         6.6990   -16.3560     1.8890 H       122  POP116      0.0265
 15560 H16S         5.0900   -15.4810     1.8670 H       122  POP116      0.0265
 15561 C217         5.7080   -16.0700     3.8300 C.3     122  POP116     -0.0559
 15562 H17R         4.8780   -16.8700     3.9040 H       122  POP116      0.0263
 15563 H17S         5.2390   -15.1980     4.3860 H       122  POP116      0.0263
 15564 C218         7.0300   -16.4620     4.5700 C.3     122  POP116     -0.0653
 15565 H18R         7.3950   -17.2850     4.0600 H       122  POP116      0.0230
 15566 H18S         6.8350   -16.7700     5.5970 H       122  POP116      0.0230
 15567 H18T         7.7040   -15.6210     4.6580 H       122  POP116      0.0230
 15568 C33         -0.2820   -15.6310   -12.2680 C.3     122  POP116     -0.0441
 15569 H3X         -0.5110   -15.9950   -13.3720 H       122  POP116      0.0270
 15570 H3Y         -0.7600   -16.4580   -11.6290 H       122  POP116      0.0270
 15571 C34          1.2500   -15.6780   -12.0250 C.3     122  POP116     -0.0526
 15572 H4X          1.8480   -15.1120   -12.7290 H       122  POP116      0.0265
 15573 H4Y          1.5580   -16.7310   -12.2620 H       122  POP116      0.0265
 15574 C35          1.5820   -15.4470   -10.5310 C.3     122  POP116     -0.0530
 15575 H5X          0.8020   -16.0610    -9.9220 H       122  POP116      0.0265
 15576 H5Y          1.3890   -14.3870   -10.3280 H       122  POP116      0.0265
 15577 C36          3.0490   -15.8550   -10.1920 C.3     122  POP116     -0.0531
 15578 H6X          3.7230   -15.1250   -10.6820 H       122  POP116      0.0265
 15579 H6Y          3.3610   -16.8470   -10.4930 H       122  POP116      0.0265
 15580 C37          3.2430   -15.9230    -8.6530 C.3     122  POP116     -0.0531
 15581 H7X          3.0140   -14.8980    -8.2190 H       122  POP116      0.0265
 15582 H7Y          4.3350   -16.1700    -8.3900 H       122  POP116      0.0265
 15583 C38          2.4380   -16.9280    -7.8410 C.3     122  POP116     -0.0531
 15584 H8X          2.7730   -17.9950    -8.0130 H       122  POP116      0.0265
 15585 H8Y          1.3390   -16.9070    -8.1170 H       122  POP116      0.0265
 15586 C39          2.6710   -16.7740    -6.3400 C.3     122  POP116     -0.0531
 15587 H9X          2.7300   -15.7950    -5.9470 H       122  POP116      0.0265
 15588 H9Y          3.6490   -17.1290    -6.1610 H       122  POP116      0.0265
 15589 C310         1.5880   -17.5010    -5.4880 C.3     122  POP116     -0.0531
 15590 H10X         1.3910   -18.4440    -6.0160 H       122  POP116      0.0265
 15591 H10Y         0.6930   -16.8690    -5.5730 H       122  POP116      0.0265
 15592 C311         1.9030   -17.7070    -4.0370 C.3     122  POP116     -0.0531
 15593 H11X         1.8040   -16.6690    -3.6030 H       122  POP116      0.0265
 15594 H11Y         2.9790   -17.9960    -3.8780 H       122  POP116      0.0265
 15595 C312         0.8800   -18.4850    -3.2450 C.3     122  POP116     -0.0531
 15596 H12X        -0.0230   -17.9890    -3.4550 H       122  POP116      0.0265
 15597 H12Y         1.1770   -18.4310    -2.1410 H       122  POP116      0.0265
 15598 C313         1.0060   -20.0100    -3.5070 C.3     122  POP116     -0.0531
 15599 H13X         1.9250   -20.3950    -3.0060 H       122  POP116      0.0265
 15600 H13Y         1.1130   -20.1910    -4.6290 H       122  POP116      0.0265
 15601 C314        -0.1860   -20.7800    -2.9560 C.3     122  POP116     -0.0533
 15602 H14X        -1.0980   -20.4090    -3.4780 H       122  POP116      0.0265
 15603 H14Y        -0.1460   -20.6110    -1.8440 H       122  POP116      0.0265
 15604 C315         0.0720   -22.2490    -2.9870 C.3     122  POP116     -0.0559
 15605 H15X         0.2720   -22.5480    -4.0140 H       122  POP116      0.0263
 15606 H15Y        -0.8500   -22.7620    -2.7380 H       122  POP116      0.0263
 15607 C316         1.0720   -22.9010    -2.0010 C.3     122  POP116     -0.0653
 15608 H16X         1.2190   -23.9530    -2.3010 H       122  POP116      0.0230
 15609 H16Y         0.6490   -22.7830    -1.0690 H       122  POP116      0.0230
 15610 H16Z         2.0090   -22.3170    -2.0320 H       122  POP116      0.0230
 15611 N           15.8370    -8.1420   -21.4890 N.3     123  POP117      0.2385
 15612 C12         16.6710    -9.3470   -21.3740 C.3     123  POP117     -0.0064
 15613 H12A        17.6990    -8.9890   -21.3470 H       123  POP117      0.0838
 15614 H12B        16.6870    -9.9600   -22.2760 H       123  POP117      0.0838
 15615 C13         14.5360    -8.4210   -22.1360 C.3     123  POP117     -0.0417
 15616 H13A        14.0220    -9.2730   -21.6750 H       123  POP117      0.0778
 15617 H13B        13.8790    -7.5690   -22.0930 H       123  POP117      0.0778
 15618 H13C        14.6530    -8.8160   -23.1250 H       123  POP117      0.0778
 15619 C14         15.7040    -7.4820   -20.1740 C.3     123  POP117     -0.0417
 15620 H14A        15.1850    -6.5290   -20.3040 H       123  POP117      0.0778
 15621 H14B        15.1090    -8.0680   -19.5290 H       123  POP117      0.0778
 15622 H14C        16.6340    -7.1310   -19.7350 H       123  POP117      0.0778
 15623 C15         16.5770    -7.1220   -22.2760 C.3     123  POP117     -0.0417
 15624 H15A        16.6910    -7.5030   -23.2470 H       123  POP117      0.0778
 15625 H15B        17.5390    -6.7760   -21.8890 H       123  POP117      0.0778
 15626 H15C        16.1540    -6.1300   -22.3940 H       123  POP117      0.0778
 15627 C11         16.3370   -10.2520   -20.1780 C.3     123  POP117      0.0954
 15628 H11A        16.5050    -9.7500   -19.2680 H       123  POP117      0.0618
 15629 H11B        17.1350   -11.1040   -20.1910 H       123  POP117      0.0618
 15630 P           14.1600   -11.4240   -19.2060 P.3     123  POP117      0.2645
 15631 O13         13.2820   -12.4410   -19.7760 O.co2   123  POP117     -0.5105
 15632 O14         13.5720   -10.2940   -18.4830 O.co2   123  POP117     -0.5105
 15633 O12         15.0190   -10.9190   -20.3490 O.3     123  POP117     -0.3154
 15634 O11         15.3360   -12.0800   -18.3440 O.3     123  POP117     -0.3181
 15635 C1          14.9140   -12.6330   -17.0580 C.3     123  POP117      0.0845
 15636 HA          14.3510   -13.5960   -17.0410 H       123  POP117      0.0591
 15637 HB          14.3290   -11.8840   -16.5070 H       123  POP117      0.0591
 15638 C2          16.1380   -13.0770   -16.1870 C.3     123  POP117      0.1155
 15639 HS          16.8040   -13.8090   -16.8100 H       123  POP117      0.0649
 15640 O21         15.7460   -13.6220   -14.8500 O.3     123  POP117     -0.3072
 15641 C21         15.4020   -14.9210   -14.7890 C.2     123  POP117      0.2626
 15642 O22         15.5420   -15.7260   -15.6840 O.2     123  POP117     -0.2650
 15643 C22         14.7980   -15.2370   -13.4740 C.3     123  POP117      0.0332
 15644 H2R         13.8520   -14.7060   -13.3010 H       123  POP117      0.0366
 15645 H2S         15.4990   -14.9520   -12.6660 H       123  POP117      0.0366
 15646 C3          17.0090   -11.8020   -16.0190 C.3     123  POP117      0.0860
 15647 HX          16.3540   -10.9730   -15.5810 H       123  POP117      0.0593
 15648 HY          17.1480   -11.4510   -17.0920 H       123  POP117      0.0593
 15649 O31         18.1420   -12.0370   -15.3120 O.3     123  POP117     -0.3125
 15650 C31         18.8860   -10.9710   -15.1600 C.2     123  POP117      0.2622
 15651 O32         18.6680    -9.8440   -15.5850 O.2     123  POP117     -0.2650
 15652 C32         20.2070   -11.3850   -14.3510 C.3     123  POP117      0.0332
 15653 H2X         21.0110   -10.9810   -14.9510 H       123  POP117      0.0366
 15654 H2Y         20.1430   -12.5250   -14.2350 H       123  POP117      0.0366
 15655 C23         14.5020   -16.7700   -13.1780 C.3     123  POP117     -0.0441
 15656 H3R         15.2550   -17.4940   -13.5910 H       123  POP117      0.0270
 15657 H3S         13.5830   -16.9830   -13.7920 H       123  POP117      0.0270
 15658 C24         14.1400   -17.0210   -11.6900 C.3     123  POP117     -0.0526
 15659 H4R         13.8520   -18.0270   -11.5210 H       123  POP117      0.0265
 15660 H4S         13.2810   -16.3250   -11.5170 H       123  POP117      0.0265
 15661 C25         15.1960   -16.5290   -10.6400 C.3     123  POP117     -0.0530
 15662 H5R         14.9940   -15.3880   -10.6020 H       123  POP117      0.0265
 15663 H5S         16.1930   -16.8360   -10.9060 H       123  POP117      0.0265
 15664 C26         14.8000   -17.0340    -9.2940 C.3     123  POP117     -0.0528
 15665 H6R         14.7800   -18.1470    -9.3680 H       123  POP117      0.0265
 15666 H6S         13.7570   -16.5670    -9.1100 H       123  POP117      0.0265
 15667 C27         15.6930   -16.6790    -8.1620 C.3     123  POP117     -0.0496
 15668 H7R         15.9300   -15.5730    -8.2700 H       123  POP117      0.0268
 15669 H7S         16.7170   -17.1270    -8.1380 H       123  POP117      0.0268
 15670 C28         14.9860   -16.6940    -6.7590 C.3     123  POP117     -0.0348
 15671 H8R         14.0350   -16.1130    -6.8120 H       123  POP117      0.0307
 15672 H8S         15.6120   -16.0520    -6.0900 H       123  POP117      0.0307
 15673 C29         14.6510   -18.0820    -6.4130 C.2     123  POP117     -0.0879
 15674 H91         14.1470   -18.6930    -7.2150 H       123  POP117      0.0569
 15675 C210        14.9010   -18.7520    -5.2340 C.2     123  POP117     -0.0879
 15676 H101        14.7920   -19.8380    -5.2400 H       123  POP117      0.0569
 15677 C211        15.6050   -18.1940    -4.0590 C.3     123  POP117     -0.0348
 15678 H11R        16.5080   -17.6210    -4.2940 H       123  POP117      0.0307
 15679 H11S        15.9520   -19.0680    -3.4130 H       123  POP117      0.0307
 15680 C212        14.7860   -17.2010    -3.1980 C.3     123  POP117     -0.0496
 15681 H12R        13.7280   -17.6990    -3.0880 H       123  POP117      0.0268
 15682 H12S        14.4970   -16.2650    -3.6160 H       123  POP117      0.0268
 15683 C213        15.3420   -17.3170    -1.7160 C.3     123  POP117     -0.0528
 15684 H13R        16.2840   -16.7780    -1.5620 H       123  POP117      0.0265
 15685 H13S        15.4440   -18.3860    -1.4520 H       123  POP117      0.0265
 15686 C214        14.4430   -16.6540    -0.6070 C.3     123  POP117     -0.0530
 15687 H14R        13.4360   -17.1590    -0.6930 H       123  POP117      0.0265
 15688 H14S        14.3300   -15.6400    -0.9160 H       123  POP117      0.0265
 15689 C215        15.0360   -16.6890     0.8340 C.3     123  POP117     -0.0531
 15690 H15R        14.4240   -15.9880     1.4960 H       123  POP117      0.0265
 15691 H15S        16.0560   -16.2390     0.7780 H       123  POP117      0.0265
 15692 C216        15.1520   -18.0970     1.4600 C.3     123  POP117     -0.0533
 15693 H16R        16.1860   -18.4940     1.0900 H       123  POP117      0.0265
 15694 H16S        14.2890   -18.6630     1.2140 H       123  POP117      0.0265
 15695 C217        15.1160   -18.0230     3.0370 C.3     123  POP117     -0.0559
 15696 H17R        14.1120   -17.7010     3.3950 H       123  POP117      0.0263
 15697 H17S        15.7410   -17.2260     3.4790 H       123  POP117      0.0263
 15698 C218        15.4490   -19.3660     3.6640 C.3     123  POP117     -0.0653
 15699 H18R        14.8210   -20.2700     3.3100 H       123  POP117      0.0230
 15700 H18S        15.2080   -19.3030     4.7720 H       123  POP117      0.0230
 15701 H18T        16.5050   -19.4920     3.4740 H       123  POP117      0.0230
 15702 C33         20.1500   -10.6680   -12.9940 C.3     123  POP117     -0.0441
 15703 H3X         19.2340   -10.8460   -12.3590 H       123  POP117      0.0270
 15704 H3Y         20.2140    -9.5540   -13.1730 H       123  POP117      0.0270
 15705 C34         21.4070   -11.1270   -12.1820 C.3     123  POP117     -0.0526
 15706 H4X         22.3450   -10.7170   -12.5810 H       123  POP117      0.0265
 15707 H4Y         21.4820   -12.1930   -12.3900 H       123  POP117      0.0265
 15708 C35         21.4010   -10.8870   -10.6380 C.3     123  POP117     -0.0530
 15709 H5X         20.5300   -11.3440   -10.0900 H       123  POP117      0.0265
 15710 H5Y         21.4170    -9.8420   -10.4450 H       123  POP117      0.0265
 15711 C36         22.7540   -11.3850    -9.9390 C.3     123  POP117     -0.0531
 15712 H6X         23.4660   -11.0530   -10.7150 H       123  POP117      0.0265
 15713 H6Y         22.8700   -12.4340   -10.0200 H       123  POP117      0.0265
 15714 C37         23.1190   -10.8900    -8.5490 C.3     123  POP117     -0.0531
 15715 H7X         22.9520    -9.7240    -8.3730 H       123  POP117      0.0265
 15716 H7Y         24.1800   -11.0900    -8.3770 H       123  POP117      0.0265
 15717 C38         22.3380   -11.6550    -7.4220 C.3     123  POP117     -0.0531
 15718 H8X         22.3730   -12.7420    -7.6320 H       123  POP117      0.0265
 15719 H8Y         21.3000   -11.2640    -7.5180 H       123  POP117      0.0265
 15720 C39         22.8350   -11.3100    -5.9530 C.3     123  POP117     -0.0531
 15721 H9X         22.8250   -10.2220    -5.6600 H       123  POP117      0.0265
 15722 H9Y         23.8810   -11.6510    -5.9200 H       123  POP117      0.0265
 15723 C310        22.1030   -12.2320    -4.9620 C.3     123  POP117     -0.0531
 15724 H10X        22.1390   -13.3370    -5.1990 H       123  POP117      0.0265
 15725 H10Y        21.0330   -11.9510    -5.1140 H       123  POP117      0.0265
 15726 C311        22.6440   -12.0890    -3.6050 C.3     123  POP117     -0.0531
 15727 H11X        22.8240   -10.9550    -3.4040 H       123  POP117      0.0265
 15728 H11Y        23.6600   -12.6210    -3.4750 H       123  POP117      0.0265
 15729 C312        21.7940   -12.6630    -2.5190 C.3     123  POP117     -0.0531
 15730 H12X        21.6650   -13.7790    -2.6420 H       123  POP117      0.0265
 15731 H12Y        20.7220   -12.2320    -2.5580 H       123  POP117      0.0265
 15732 C313        22.3590   -12.2390    -1.1380 C.3     123  POP117     -0.0531
 15733 H13X        21.5550   -12.3940    -0.4450 H       123  POP117      0.0265
 15734 H13Y        22.5130   -11.1290    -1.1590 H       123  POP117      0.0265
 15735 C314        23.6030   -13.1140    -0.5920 C.3     123  POP117     -0.0533
 15736 H14X        24.0960   -12.6370     0.2040 H       123  POP117      0.0265
 15737 H14Y        24.3720   -13.0430    -1.5150 H       123  POP117      0.0265
 15738 C315        23.2320   -14.6070    -0.4880 C.3     123  POP117     -0.0559
 15739 H15X        23.0500   -14.9930    -1.4810 H       123  POP117      0.0263
 15740 H15Y        22.2430   -14.7150    -0.0050 H       123  POP117      0.0263
 15741 C316        24.3580   -15.4350     0.0380 C.3     123  POP117     -0.0653
 15742 H16X        24.6590   -14.9790     0.9860 H       123  POP117      0.0230
 15743 H16Y        25.2370   -15.3600    -0.5950 H       123  POP117      0.0230
 15744 H16Z        24.1890   -16.5680     0.1880 H       123  POP117      0.0230
 15745 N           -3.4010     3.1150   -15.1260 N.3     124  POP118      0.2385
 15746 C12         -3.9210     3.8440   -13.9300 C.3     124  POP118     -0.0064
 15747 H12A        -4.8760     3.3580   -13.7590 H       124  POP118      0.0838
 15748 H12B        -4.2480     4.8800   -14.1940 H       124  POP118      0.0838
 15749 C13         -3.3290     1.6030   -14.8340 C.3     124  POP118     -0.0417
 15750 H13A        -3.0170     1.1170   -15.7290 H       124  POP118      0.0778
 15751 H13B        -2.6580     1.3790   -14.0400 H       124  POP118      0.0778
 15752 H13C        -4.3350     1.2100   -14.6060 H       124  POP118      0.0778
 15753 C14         -4.2530     3.2700   -16.3340 C.3     124  POP118     -0.0417
 15754 H14A        -3.9180     2.8000   -17.2540 H       124  POP118      0.0778
 15755 H14B        -5.2460     2.7950   -16.1990 H       124  POP118      0.0778
 15756 H14C        -4.4270     4.3580   -16.5820 H       124  POP118      0.0778
 15757 C15         -2.0280     3.5450   -15.5400 C.3     124  POP118     -0.0417
 15758 H15A        -1.7650     3.0300   -16.4430 H       124  POP118      0.0778
 15759 H15B        -1.2560     3.3060   -14.8170 H       124  POP118      0.0778
 15760 H15C        -2.1390     4.5900   -15.6580 H       124  POP118      0.0778
 15761 C11         -3.1830     3.8970   -12.5840 C.3     124  POP118      0.0954
 15762 H11A        -2.8710     2.8700   -12.2790 H       124  POP118      0.0618
 15763 H11B        -3.9340     4.2850   -11.9120 H       124  POP118      0.0618
 15764 P           -0.5690     4.4080   -12.2780 P.3     124  POP118      0.2645
 15765 O13          0.3030     5.4860   -12.8630 O.co2   124  POP118     -0.5105
 15766 O14         -0.2180     2.9950   -12.6810 O.co2   124  POP118     -0.5105
 15767 O12         -2.0130     4.7320   -12.7930 O.3     124  POP118     -0.3154
 15768 O11         -0.5780     4.5660   -10.7270 O.3     124  POP118     -0.3181
 15769 C1          -1.1630     5.6710   -10.0860 C.3     124  POP118      0.0845
 15770 HA          -1.8310     6.3070   -10.6940 H       124  POP118      0.0591
 15771 HB          -0.3050     6.3710    -9.6490 H       124  POP118      0.0591
 15772 C2          -2.0760     5.1530    -8.8770 C.3     124  POP118      0.1155
 15773 HS          -1.2950     4.8110    -8.1290 H       124  POP118      0.0649
 15774 O21         -3.0270     4.1840    -9.3690 O.3     124  POP118     -0.3072
 15775 C21         -2.9610     2.9520    -8.8600 C.2     124  POP118      0.2626
 15776 O22         -2.1610     2.6070    -7.9730 O.2     124  POP118     -0.2650
 15777 C22         -4.1350     2.2210    -9.4540 C.3     124  POP118      0.0332
 15778 H2R         -3.9090     2.0870   -10.4930 H       124  POP118      0.0366
 15779 H2S         -5.0100     2.8920    -9.3810 H       124  POP118      0.0366
 15780 C3          -2.8200     6.3290    -8.2630 C.3     124  POP118      0.0860
 15781 HX          -3.1620     6.0530    -7.2250 H       124  POP118      0.0593
 15782 HY          -3.7590     6.5730    -8.8960 H       124  POP118      0.0593
 15783 O31         -2.0510     7.5870    -8.1790 O.3     124  POP118     -0.3125
 15784 C31         -1.1440     7.5690    -7.1720 C.2     124  POP118      0.2622
 15785 O32         -0.8220     6.6030    -6.5430 O.2     124  POP118     -0.2650
 15786 C32         -0.4960     8.9120    -7.0490 C.3     124  POP118      0.0332
 15787 H2X         -1.2950     9.4690    -6.4970 H       124  POP118      0.0366
 15788 H2Y         -0.2990     9.2570    -8.0560 H       124  POP118      0.0366
 15789 C23         -4.6630     0.9890    -8.6960 C.3     124  POP118     -0.0441
 15790 H3R         -3.8290     0.2010    -8.7510 H       124  POP118      0.0270
 15791 H3S         -5.4610     0.4550    -9.3340 H       124  POP118      0.0270
 15792 C24         -5.1380     1.3040    -7.3510 C.3     124  POP118     -0.0526
 15793 H4R         -5.7520     2.1560    -7.2860 H       124  POP118      0.0265
 15794 H4S         -4.2080     1.5380    -6.6500 H       124  POP118      0.0265
 15795 C25         -5.9190     0.1380    -6.7260 C.3     124  POP118     -0.0530
 15796 H5R         -5.2390    -0.7270    -6.6480 H       124  POP118      0.0265
 15797 H5S         -6.7940    -0.1290    -7.3610 H       124  POP118      0.0265
 15798 C26         -6.3700     0.5980    -5.3480 C.3     124  POP118     -0.0528
 15799 H6R         -5.4590     0.4570    -4.7860 H       124  POP118      0.0265
 15800 H6S         -6.6010     1.6650    -5.4470 H       124  POP118      0.0265
 15801 C27         -7.6470    -0.0950    -4.8980 C.3     124  POP118     -0.0496
 15802 H7R         -7.4840    -1.1970    -4.6730 H       124  POP118      0.0268
 15803 H7S         -8.4570    -0.2070    -5.6600 H       124  POP118      0.0268
 15804 C28         -8.2470     0.6010    -3.6040 C.3     124  POP118     -0.0348
 15805 H8R         -8.6350     1.5890    -3.8520 H       124  POP118      0.0307
 15806 H8S         -7.3150     0.7430    -2.9860 H       124  POP118      0.0307
 15807 C29         -9.1510    -0.2850    -2.7550 C.2     124  POP118     -0.0879
 15808 H91         -9.9620    -0.5670    -3.3400 H       124  POP118      0.0569
 15809 C210        -9.1510    -0.5880    -1.4400 C.2     124  POP118     -0.0879
 15810 H101        -9.9070    -1.3240    -1.0610 H       124  POP118      0.0569
 15811 C211        -8.1220    -0.0570    -0.5110 C.3     124  POP118     -0.0348
 15812 H11R        -8.4080    -0.0090     0.5520 H       124  POP118      0.0307
 15813 H11S        -7.8040     0.9860    -0.7500 H       124  POP118      0.0307
 15814 C212        -6.8060    -0.9640    -0.5050 C.3     124  POP118     -0.0496
 15815 H12R        -6.1930    -0.2850     0.1150 H       124  POP118      0.0268
 15816 H12S        -6.2860    -0.9910    -1.5220 H       124  POP118      0.0268
 15817 C213        -7.0300    -2.2750     0.0660 C.3     124  POP118     -0.0528
 15818 H13R        -6.0850    -2.8590    -0.0420 H       124  POP118      0.0265
 15819 H13S        -7.8050    -2.8770    -0.4260 H       124  POP118      0.0265
 15820 C214        -7.4430    -2.3940     1.5160 C.3     124  POP118     -0.0530
 15821 H14R        -8.5500    -2.1020     1.6340 H       124  POP118      0.0265
 15822 H14S        -6.8250    -1.7070     2.1020 H       124  POP118      0.0265
 15823 C215        -7.4280    -3.8600     2.0820 C.3     124  POP118     -0.0531
 15824 H15R        -6.4700    -4.3440     1.9040 H       124  POP118      0.0265
 15825 H15S        -8.1020    -4.4280     1.3580 H       124  POP118      0.0265
 15826 C216        -7.7580    -4.0280     3.5960 C.3     124  POP118     -0.0533
 15827 H16R        -8.8960    -3.9460     3.7130 H       124  POP118      0.0265
 15828 H16S        -7.3160    -3.2830     4.2510 H       124  POP118      0.0265
 15829 C217        -7.2640    -5.2660     4.1770 C.3     124  POP118     -0.0559
 15830 H17R        -7.4500    -6.2530     3.6600 H       124  POP118      0.0263
 15831 H17S        -7.8740    -5.3410     5.1620 H       124  POP118      0.0263
 15832 C218        -5.8500    -5.2760     4.5960 C.3     124  POP118     -0.0653
 15833 H18R        -5.7510    -4.4640     5.3750 H       124  POP118      0.0230
 15834 H18S        -5.1150    -4.9780     3.7920 H       124  POP118      0.0230
 15835 H18T        -5.6210    -6.2460     5.0330 H       124  POP118      0.0230
 15836 C33          0.8460     8.9010    -6.2430 C.3     124  POP118     -0.0441
 15837 H3X          1.7560     8.4890    -6.8330 H       124  POP118      0.0270
 15838 H3Y          0.5960     8.1580    -5.4000 H       124  POP118      0.0270
 15839 C34          1.2890    10.0730    -5.3950 C.3     124  POP118     -0.0526
 15840 H4X          0.3350    10.3410    -4.8540 H       124  POP118      0.0265
 15841 H4Y          1.7280    10.8210    -6.0620 H       124  POP118      0.0265
 15842 C35          2.3500     9.6940    -4.4370 C.3     124  POP118     -0.0530
 15843 H5X          3.2980     9.8870    -4.9050 H       124  POP118      0.0265
 15844 H5Y          2.3650     8.6300    -4.1750 H       124  POP118      0.0265
 15845 C36          2.3040    10.5990    -3.1240 C.3     124  POP118     -0.0531
 15846 H6X          1.3250    10.1470    -2.7710 H       124  POP118      0.0265
 15847 H6Y          2.1960    11.6440    -3.4440 H       124  POP118      0.0265
 15848 C37          3.3580    10.3520    -2.0400 C.3     124  POP118     -0.0531
 15849 H7X          4.3250    10.6490    -2.3980 H       124  POP118      0.0265
 15850 H7Y          3.4410     9.3080    -1.7880 H       124  POP118      0.0265
 15851 C38          2.9990    11.0500    -0.6770 C.3     124  POP118     -0.0531
 15852 H8X          2.1840    10.5200    -0.2180 H       124  POP118      0.0265
 15853 H8Y          2.7910    12.1570    -0.7620 H       124  POP118      0.0265
 15854 C39          4.1980    11.1280     0.3490 C.3     124  POP118     -0.0531
 15855 H9X          3.9710    11.9270     1.0830 H       124  POP118      0.0265
 15856 H9Y          4.9900    11.5330    -0.3040 H       124  POP118      0.0265
 15857 C310         4.4430     9.8200     1.0240 C.3     124  POP118     -0.0531
 15858 H10X         4.3470     9.0010     0.2700 H       124  POP118      0.0265
 15859 H10Y         3.6650     9.7150     1.7600 H       124  POP118      0.0265
 15860 C311         5.8850     9.7310     1.6370 C.3     124  POP118     -0.0531
 15861 H11X         6.1330    10.7190     2.1370 H       124  POP118      0.0265
 15862 H11Y         6.5790     9.6160     0.8120 H       124  POP118      0.0265
 15863 C312         6.2230     8.5000     2.4130 C.3     124  POP118     -0.0531
 15864 H12X         5.4980     8.4440     3.2830 H       124  POP118      0.0265
 15865 H12Y         7.2780     8.6580     2.8090 H       124  POP118      0.0265
 15866 C313         6.1150     7.1830     1.5740 C.3     124  POP118     -0.0531
 15867 H13X         6.1800     7.4680     0.4990 H       124  POP118      0.0265
 15868 H13Y         5.0830     6.7510     1.6370 H       124  POP118      0.0265
 15869 C314         7.1070     6.0580     1.9670 C.3     124  POP118     -0.0533
 15870 H14X         6.9970     5.7900     2.9980 H       124  POP118      0.0265
 15871 H14Y         8.1050     6.5020     1.8480 H       124  POP118      0.0265
 15872 C315         7.0370     4.8120     1.0950 C.3     124  POP118     -0.0559
 15873 H15X         7.9670     4.2390     1.3390 H       124  POP118      0.0263
 15874 H15Y         7.0670     5.1280     0.0120 H       124  POP118      0.0263
 15875 C316         5.7600     3.8400     1.4710 C.3     124  POP118     -0.0653
 15876 H16X         6.0010     2.8430     0.8430 H       124  POP118      0.0230
 15877 H16Y         4.8580     4.1920     1.0290 H       124  POP118      0.0230
 15878 H16Z         5.6730     3.5220     2.5530 H       124  POP118      0.0230
 15879 N          -15.0250     1.8080   -22.2820 N.3     125  POP119      0.2385
 15880 C12        -13.7730     1.5580   -21.3960 C.3     125  POP119     -0.0064
 15881 H12A       -13.1440     2.3930   -21.5750 H       125  POP119      0.0838
 15882 H12B       -13.1760     0.7580   -21.8150 H       125  POP119      0.0838
 15883 C13        -14.6810     1.5830   -23.7970 C.3     125  POP119     -0.0417
 15884 H13A       -14.1720     0.6470   -23.9500 H       125  POP119      0.0778
 15885 H13B       -15.5750     1.6670   -24.3950 H       125  POP119      0.0778
 15886 H13C       -14.1890     2.5260   -24.1160 H       125  POP119      0.0778
 15887 C14        -16.0360     0.8010   -21.9780 C.3     125  POP119     -0.0417
 15888 H14A       -16.6770     0.9290   -21.1190 H       125  POP119      0.0778
 15889 H14B       -16.7320     0.6890   -22.8650 H       125  POP119      0.0778
 15890 H14C       -15.5710    -0.1630   -21.7200 H       125  POP119      0.0778
 15891 C15        -15.5120     3.2230   -22.1790 C.3     125  POP119     -0.0417
 15892 H15A       -16.3420     3.3910   -22.8350 H       125  POP119      0.0778
 15893 H15B       -14.6450     3.9290   -22.3940 H       125  POP119      0.0778
 15894 H15C       -15.7990     3.5570   -21.2170 H       125  POP119      0.0778
 15895 C11        -13.9860     1.5360   -19.8610 C.3     125  POP119      0.0954
 15896 H11A       -12.9420     1.4140   -19.4730 H       125  POP119      0.0618
 15897 H11B       -14.5610     0.6470   -19.5460 H       125  POP119      0.0618
 15898 P          -13.8120     4.0810   -19.1660 P.3     125  POP119      0.2645
 15899 O13        -14.4980     5.2400   -19.7850 O.co2   125  POP119     -0.5105
 15900 O14        -12.3780     3.9030   -19.3290 O.co2   125  POP119     -0.5105
 15901 O12        -14.6420     2.7080   -19.3970 O.3     125  POP119     -0.3154
 15902 O11        -14.0260     4.2830   -17.5640 O.3     125  POP119     -0.3181
 15903 C1         -14.6820     3.2880   -16.8100 C.3     125  POP119      0.0845
 15904 HA         -14.0740     2.3670   -16.4980 H       125  POP119      0.0591
 15905 HB         -15.6440     2.9550   -17.3280 H       125  POP119      0.0591
 15906 C2         -15.1220     3.9000   -15.3360 C.3     125  POP119      0.1155
 15907 HS         -15.5200     4.8760   -15.6590 H       125  POP119      0.0649
 15908 O21        -14.0450     3.7910   -14.4350 O.3     125  POP119     -0.3072
 15909 C21        -14.0770     4.5960   -13.3290 C.2     125  POP119      0.2626
 15910 O22        -14.9290     5.4260   -13.1550 O.2     125  POP119     -0.2650
 15911 C22        -12.7900     4.3310   -12.5220 C.3     125  POP119      0.0332
 15912 H2R        -11.9570     4.5190   -13.2040 H       125  POP119      0.0366
 15913 H2S        -12.6850     3.2750   -12.3700 H       125  POP119      0.0366
 15914 C3         -16.2760     3.0190   -14.7750 C.3     125  POP119      0.0860
 15915 HX         -15.8420     2.0430   -14.5920 H       125  POP119      0.0593
 15916 HY         -17.0970     2.8680   -15.5030 H       125  POP119      0.0593
 15917 O31        -16.8470     3.3920   -13.5000 O.3     125  POP119     -0.3125
 15918 C31        -17.8090     4.3600   -13.5270 C.2     125  POP119      0.2622
 15919 O32        -18.1240     4.9130   -14.5820 O.2     125  POP119     -0.2650
 15920 C32        -18.3410     4.7240   -12.1490 C.3     125  POP119      0.0332
 15921 H2X        -17.5980     4.3390   -11.3680 H       125  POP119      0.0366
 15922 H2Y        -19.2650     4.2540   -11.8950 H       125  POP119      0.0366
 15923 C23        -12.7810     4.9630   -11.1660 C.3     125  POP119     -0.0441
 15924 H3R        -13.1320     5.9990   -11.3260 H       125  POP119      0.0270
 15925 H3S        -11.8450     4.9870   -10.6720 H       125  POP119      0.0270
 15926 C24        -13.8920     4.4500   -10.0830 C.3     125  POP119     -0.0526
 15927 H4R        -13.4270     3.6110    -9.5340 H       125  POP119      0.0265
 15928 H4S        -14.8110     4.2570   -10.6190 H       125  POP119      0.0265
 15929 C25        -14.3420     5.4020    -8.9900 C.3     125  POP119     -0.0530
 15930 H5R        -15.1460     4.8920    -8.4830 H       125  POP119      0.0265
 15931 H5S        -14.6260     6.3760    -9.4420 H       125  POP119      0.0265
 15932 C26        -13.2170     5.7450    -7.9760 C.3     125  POP119     -0.0528
 15933 H6R        -12.3890     6.2980    -8.5230 H       125  POP119      0.0265
 15934 H6S        -12.7280     4.8530    -7.5500 H       125  POP119      0.0265
 15935 C27        -13.8090     6.8170    -7.0020 C.3     125  POP119     -0.0496
 15936 H7R        -14.8300     6.4150    -6.6690 H       125  POP119      0.0268
 15937 H7S        -14.0690     7.6760    -7.6320 H       125  POP119      0.0268
 15938 C28        -12.9330     7.5320    -5.9100 C.3     125  POP119     -0.0348
 15939 H8R        -12.4340     6.7460    -5.2530 H       125  POP119      0.0307
 15940 H8S        -13.7240     8.0740    -5.3070 H       125  POP119      0.0307
 15941 C29        -11.9890     8.6620    -6.4770 C.2     125  POP119     -0.0879
 15942 H91        -12.3080     9.1940    -7.4280 H       125  POP119      0.0569
 15943 C210       -10.9210     9.1650    -5.8860 C.2     125  POP119     -0.0879
 15944 H101       -10.3280    10.0870    -6.2730 H       125  POP119      0.0569
 15945 C211       -10.3750     8.5740    -4.5670 C.3     125  POP119     -0.0348
 15946 H11R        -9.2650     8.5580    -4.5460 H       125  POP119      0.0307
 15947 H11S       -10.7610     7.5060    -4.4980 H       125  POP119      0.0307
 15948 C212       -10.9260     9.2820    -3.2570 C.3     125  POP119     -0.0496
 15949 H12R       -10.5150    10.3430    -3.2280 H       125  POP119      0.0268
 15950 H12S       -10.4700     8.7050    -2.4030 H       125  POP119      0.0268
 15951 C213       -12.4950     9.3940    -3.1810 C.3     125  POP119     -0.0528
 15952 H13R       -12.9220     8.3940    -3.3530 H       125  POP119      0.0265
 15953 H13S       -12.9030    10.0990    -3.9010 H       125  POP119      0.0265
 15954 C214       -12.8630    10.0720    -1.8570 C.3     125  POP119     -0.0530
 15955 H14R       -12.3110     9.6520    -0.9850 H       125  POP119      0.0265
 15956 H14S       -13.9570     9.9250    -1.7680 H       125  POP119      0.0265
 15957 C215       -12.4260    11.6240    -1.8300 C.3     125  POP119     -0.0531
 15958 H15R       -12.6950    12.0550    -2.8030 H       125  POP119      0.0265
 15959 H15S       -11.2560    11.5800    -1.7830 H       125  POP119      0.0265
 15960 C216       -12.9580    12.4520    -0.6130 C.3     125  POP119     -0.0533
 15961 H16R       -12.3110    11.9460     0.2690 H       125  POP119      0.0265
 15962 H16S       -14.0710    12.3940    -0.5790 H       125  POP119      0.0265
 15963 C217       -12.5200    13.9280    -0.7050 C.3     125  POP119     -0.0559
 15964 H17R       -13.2400    14.3490    -1.3380 H       125  POP119      0.0263
 15965 H17S       -11.5500    13.9740    -1.1570 H       125  POP119      0.0263
 15966 C218       -12.5820    14.6090     0.7110 C.3     125  POP119     -0.0653
 15967 H18R       -12.0530    13.9010     1.4110 H       125  POP119      0.0230
 15968 H18S       -13.6300    14.7090     1.1140 H       125  POP119      0.0230
 15969 H18T       -12.0570    15.5930     0.6770 H       125  POP119      0.0230
 15970 C33        -18.3640     6.2850   -12.0100 C.3     125  POP119     -0.0441
 15971 H3X        -19.3510     6.5910   -12.4570 H       125  POP119      0.0270
 15972 H3Y        -17.4950     6.8560   -12.5100 H       125  POP119      0.0270
 15973 C34        -18.3020     6.6120   -10.4810 C.3     125  POP119     -0.0526
 15974 H4X        -17.3910     6.1320   -10.1970 H       125  POP119      0.0265
 15975 H4Y        -19.2000     6.2240    -9.9690 H       125  POP119      0.0265
 15976 C35        -18.1180     8.1310   -10.4360 C.3     125  POP119     -0.0530
 15977 H5X        -18.7960     8.7150   -11.1720 H       125  POP119      0.0265
 15978 H5Y        -17.1390     8.3400   -10.8370 H       125  POP119      0.0265
 15979 C36        -18.2080     8.6130    -9.0280 C.3     125  POP119     -0.0531
 15980 H6X        -19.3030     8.6810    -8.6770 H       125  POP119      0.0265
 15981 H6Y        -17.9390     9.6390    -8.9780 H       125  POP119      0.0265
 15982 C37        -17.3140     7.8760    -8.0920 C.3     125  POP119     -0.0531
 15983 H7X        -16.2920     7.7050    -8.6000 H       125  POP119      0.0265
 15984 H7Y        -17.7790     6.8660    -7.8920 H       125  POP119      0.0265
 15985 C38        -16.9810     8.4510    -6.6860 C.3     125  POP119     -0.0531
 15986 H8X        -16.3290     7.6360    -6.1720 H       125  POP119      0.0265
 15987 H8Y        -17.8680     8.6850    -6.1200 H       125  POP119      0.0265
 15988 C39        -16.1540     9.6780    -6.8310 C.3     125  POP119     -0.0531
 15989 H9X        -16.8210    10.3760    -7.3110 H       125  POP119      0.0265
 15990 H9Y        -15.3370     9.4250    -7.5620 H       125  POP119      0.0265
 15991 C310       -15.6800    10.1560    -5.4930 C.3     125  POP119     -0.0531
 15992 H10X       -14.7790    10.8100    -5.5470 H       125  POP119      0.0265
 15993 H10Y       -15.3750     9.2100    -4.9310 H       125  POP119      0.0265
 15994 C311       -16.7560    10.8430    -4.6910 C.3     125  POP119     -0.0531
 15995 H11X       -17.1230    10.0280    -3.9400 H       125  POP119      0.0265
 15996 H11Y       -17.6100    10.9890    -5.3690 H       125  POP119      0.0265
 15997 C312       -16.2320    12.0130    -4.0690 C.3     125  POP119     -0.0531
 15998 H12X       -15.7700    12.6960    -4.8280 H       125  POP119      0.0265
 15999 H12Y       -15.3940    11.7100    -3.3880 H       125  POP119      0.0265
 16000 C313       -17.3190    12.7690    -3.2430 C.3     125  POP119     -0.0531
 16001 H13X       -18.3050    12.5730    -3.6330 H       125  POP119      0.0265
 16002 H13Y       -16.9490    13.7800    -3.2210 H       125  POP119      0.0265
 16003 C314       -17.3860    12.2800    -1.7650 C.3     125  POP119     -0.0533
 16004 H14X       -18.1830    12.8700    -1.2280 H       125  POP119      0.0265
 16005 H14Y       -16.4630    12.5370    -1.2120 H       125  POP119      0.0265
 16006 C315       -17.7070    10.7650    -1.5090 C.3     125  POP119     -0.0559
 16007 H15X       -16.9250    10.0110    -1.7920 H       125  POP119      0.0263
 16008 H15Y       -18.4610    10.5490    -2.2730 H       125  POP119      0.0263
 16009 C316       -18.2470    10.4410    -0.1110 C.3     125  POP119     -0.0653
 16010 H16X       -17.5120    10.2820     0.6640 H       125  POP119      0.0230
 16011 H16Y       -18.7230     9.4470    -0.1250 H       125  POP119      0.0230
 16012 H16Z       -19.0540    11.1500     0.1770 H       125  POP119      0.0230
 16013 N           30.7200   -12.1450   -23.5880 N.3     126  POP120      0.2385
 16014 C12         30.5750   -12.6610   -22.1180 C.3     126  POP120     -0.0064
 16015 H12A        31.4210   -13.2520   -21.8480 H       126  POP120      0.0838
 16016 H12B        29.7330   -13.2750   -22.0850 H       126  POP120      0.0838
 16017 C13         30.5910   -13.2720   -24.4980 C.3     126  POP120     -0.0417
 16018 H13A        31.4100   -14.0440   -24.4640 H       126  POP120      0.0778
 16019 H13B        29.6830   -13.7830   -24.2220 H       126  POP120      0.0778
 16020 H13C        30.4990   -12.9140   -25.5270 H       126  POP120      0.0778
 16021 C14         29.5740   -11.1220   -23.7620 C.3     126  POP120     -0.0417
 16022 H14A        28.6950   -11.6570   -23.5120 H       126  POP120      0.0778
 16023 H14B        29.7850   -10.3120   -23.0870 H       126  POP120      0.0778
 16024 H14C        29.6870   -10.8510   -24.8430 H       126  POP120      0.0778
 16025 C15         32.0120   -11.4120   -23.7640 C.3     126  POP120     -0.0417
 16026 H15A        32.1770   -11.1050   -24.7970 H       126  POP120      0.0778
 16027 H15B        32.8820   -11.9870   -23.5300 H       126  POP120      0.0778
 16028 H15C        32.2100   -10.5740   -23.2400 H       126  POP120      0.0778
 16029 C11         30.4750   -11.6080   -20.9840 C.3     126  POP120      0.0954
 16030 H11A        31.2850   -10.9170   -21.1500 H       126  POP120      0.0618
 16031 H11B        30.8600   -12.0970   -20.0070 H       126  POP120      0.0618
 16032 P           27.9580   -11.7900   -20.4770 P.3     126  POP120      0.2645
 16033 O13         27.6090   -12.5250   -21.6930 O.co2   126  POP120     -0.5105
 16034 O14         26.8810   -11.0090   -19.8090 O.co2   126  POP120     -0.5105
 16035 O12         29.2490   -10.9110   -20.8500 O.3     126  POP120     -0.3154
 16036 O11         28.5070   -12.8160   -19.4030 O.3     126  POP120     -0.3181
 16037 C1          28.8100   -12.5750   -18.0810 C.3     126  POP120      0.0845
 16038 HA          27.9530   -12.2370   -17.5180 H       126  POP120      0.0591
 16039 HB          29.5230   -11.7740   -18.0910 H       126  POP120      0.0591
 16040 C2          29.2830   -13.8660   -17.3670 C.3     126  POP120      0.1155
 16041 HS          28.3810   -14.5290   -17.2880 H       126  POP120      0.0649
 16042 O21         29.7880   -13.5000   -16.0460 O.3     126  POP120     -0.3072
 16043 C21         29.0380   -12.9820   -15.0730 C.2     126  POP120      0.2626
 16044 O22         27.8040   -12.8350   -15.2220 O.2     126  POP120     -0.2650
 16045 C22         29.8210   -12.6690   -13.8730 C.3     126  POP120      0.0332
 16046 H2R         29.0910   -12.1740   -13.1460 H       126  POP120      0.0366
 16047 H2S         30.6120   -12.0340   -14.2110 H       126  POP120      0.0366
 16048 C3          30.2960   -14.6750   -18.1990 C.3     126  POP120      0.0860
 16049 HX          31.0230   -13.9500   -18.5270 H       126  POP120      0.0593
 16050 HY          29.8220   -15.1690   -19.0510 H       126  POP120      0.0593
 16051 O31         30.9480   -15.6970   -17.4420 O.3     126  POP120     -0.3125
 16052 C31         32.1120   -15.3160   -16.8340 C.2     126  POP120      0.2622
 16053 O32         32.7110   -14.2680   -17.0200 O.2     126  POP120     -0.2650
 16054 C32         32.4900   -16.5920   -16.0130 C.3     126  POP120      0.0332
 16055 H2X         33.4670   -16.4930   -15.7900 H       126  POP120      0.0366
 16056 H2Y         32.3670   -17.4520   -16.6840 H       126  POP120      0.0366
 16057 C23         30.2900   -13.8870   -13.1040 C.3     126  POP120     -0.0441
 16058 H3R         31.4140   -14.0120   -13.2220 H       126  POP120      0.0270
 16059 H3S         29.7730   -14.7940   -13.5510 H       126  POP120      0.0270
 16060 C24         30.0070   -13.7490   -11.6330 C.3     126  POP120     -0.0526
 16061 H4R         28.8780   -13.8190   -11.5460 H       126  POP120      0.0265
 16062 H4S         30.4190   -12.7410   -11.2930 H       126  POP120      0.0265
 16063 C25         30.6370   -14.8330   -10.7040 C.3     126  POP120     -0.0530
 16064 H5R         31.6760   -14.8140   -11.0170 H       126  POP120      0.0265
 16065 H5S         30.4180   -15.8770   -11.0230 H       126  POP120      0.0265
 16066 C26         30.5130   -14.6960    -9.1910 C.3     126  POP120     -0.0528
 16067 H6R         30.7020   -13.6070    -8.8530 H       126  POP120      0.0265
 16068 H6S         31.2540   -15.2640    -8.6730 H       126  POP120      0.0265
 16069 C27         29.0500   -15.0020    -8.6280 C.3     126  POP120     -0.0496
 16070 H7R         28.8440   -16.0580    -8.5930 H       126  POP120      0.0268
 16071 H7S         28.2820   -14.5650    -9.2670 H       126  POP120      0.0268
 16072 C28         28.7960   -14.3240    -7.1680 C.3     126  POP120     -0.0348
 16073 H8R         28.9810   -13.2310    -7.3300 H       126  POP120      0.0307
 16074 H8S         29.5790   -14.6880    -6.5160 H       126  POP120      0.0307
 16075 C29         27.4640   -14.6870    -6.5720 C.2     126  POP120     -0.0879
 16076 H91         26.6330   -14.0450    -6.8870 H       126  POP120      0.0569
 16077 C210        27.2600   -15.6070    -5.6840 C.2     126  POP120     -0.0879
 16078 H101        26.2120   -15.6650    -5.2810 H       126  POP120      0.0569
 16079 C211        28.1890   -16.6930    -5.1710 C.3     126  POP120     -0.0348
 16080 H11R        29.2030   -16.6150    -5.5980 H       126  POP120      0.0307
 16081 H11S        27.8690   -17.6780    -5.5150 H       126  POP120      0.0307
 16082 C212        28.2400   -16.7580    -3.6190 C.3     126  POP120     -0.0496
 16083 H12R        28.7790   -17.6920    -3.2540 H       126  POP120      0.0268
 16084 H12S        27.1890   -16.9150    -3.2320 H       126  POP120      0.0268
 16085 C213        28.9820   -15.5230    -3.1640 C.3     126  POP120     -0.0528
 16086 H13R        28.3910   -14.6620    -3.4190 H       126  POP120      0.0265
 16087 H13S        29.9940   -15.4810    -3.7580 H       126  POP120      0.0265
 16088 C214        29.2230   -15.4360    -1.6310 C.3     126  POP120     -0.0530
 16089 H14R        29.5130   -14.4180    -1.4160 H       126  POP120      0.0265
 16090 H14S        28.2500   -15.6400    -1.1460 H       126  POP120      0.0265
 16091 C215        30.1920   -16.4960    -1.2170 C.3     126  POP120     -0.0531
 16092 H15R        31.1900   -16.4530    -1.7640 H       126  POP120      0.0265
 16093 H15S        29.7650   -17.4780    -1.5740 H       126  POP120      0.0265
 16094 C216        30.5340   -16.5540     0.2820 C.3     126  POP120     -0.0533
 16095 H16R        29.5390   -16.5740     0.7450 H       126  POP120      0.0265
 16096 H16S        31.1900   -15.6820     0.6720 H       126  POP120      0.0265
 16097 C217        31.2040   -17.8280     0.6760 C.3     126  POP120     -0.0559
 16098 H17R        32.1440   -17.9630     0.0900 H       126  POP120      0.0263
 16099 H17S        30.5210   -18.6320     0.3150 H       126  POP120      0.0263
 16100 C218        31.4470   -18.0000     2.1630 C.3     126  POP120     -0.0653
 16101 H18R        30.5350   -18.2740     2.7480 H       126  POP120      0.0230
 16102 H18S        31.7940   -16.9830     2.5080 H       126  POP120      0.0230
 16103 H18T        32.2790   -18.7400     2.2740 H       126  POP120      0.0230
 16104 C33         31.7090   -16.9750   -14.6780 C.3     126  POP120     -0.0441
 16105 H3X         30.6710   -17.2070   -14.7080 H       126  POP120      0.0270
 16106 H3Y         31.7990   -16.2070   -13.9140 H       126  POP120      0.0270
 16107 C34         32.3370   -18.2310   -14.1050 C.3     126  POP120     -0.0526
 16108 H4X         33.4030   -18.2230   -14.4810 H       126  POP120      0.0265
 16109 H4Y         31.8240   -19.1380   -14.5360 H       126  POP120      0.0265
 16110 C35         32.3820   -18.2800   -12.5330 C.3     126  POP120     -0.0530
 16111 H5X         31.3320   -18.1590   -12.1700 H       126  POP120      0.0265
 16112 H5Y         33.0060   -17.3860   -12.2060 H       126  POP120      0.0265
 16113 C36         33.0890   -19.5350   -11.9920 C.3     126  POP120     -0.0531
 16114 H6X         34.1310   -19.4860   -12.4840 H       126  POP120      0.0265
 16115 H6Y         32.5370   -20.4240   -12.1560 H       126  POP120      0.0265
 16116 C37         33.2070   -19.4720   -10.4370 C.3     126  POP120     -0.0531
 16117 H7X         32.1410   -19.6260   -10.0010 H       126  POP120      0.0265
 16118 H7Y         33.5900   -18.4650   -10.1920 H       126  POP120      0.0265
 16119 C38         34.3270   -20.5000    -9.9840 C.3     126  POP120     -0.0531
 16120 H8X         35.1910   -19.9250   -10.2160 H       126  POP120      0.0265
 16121 H8Y         34.2020   -21.3430   -10.5890 H       126  POP120      0.0265
 16122 C39         34.1310   -21.0320    -8.5870 C.3     126  POP120     -0.0531
 16123 H9X         33.0470   -21.0830    -8.3450 H       126  POP120      0.0265
 16124 H9Y         34.4520   -20.2270    -7.9060 H       126  POP120      0.0265
 16125 C310        34.7720   -22.3210    -8.2150 C.3     126  POP120     -0.0531
 16126 H10X        35.9090   -22.2350    -8.1330 H       126  POP120      0.0265
 16127 H10Y        34.5230   -23.1850    -8.9350 H       126  POP120      0.0265
 16128 C311        34.2220   -22.9080    -6.8770 C.3     126  POP120     -0.0531
 16129 H11X        34.6610   -23.9260    -6.6330 H       126  POP120      0.0265
 16130 H11Y        33.1490   -23.0550    -7.0710 H       126  POP120      0.0265
 16131 C312        34.4950   -22.0210    -5.6420 C.3     126  POP120     -0.0531
 16132 H12X        34.2150   -21.0040    -5.9330 H       126  POP120      0.0265
 16133 H12Y        35.5540   -22.0660    -5.3490 H       126  POP120      0.0265
 16134 C313        33.7180   -22.3840    -4.3260 C.3     126  POP120     -0.0531
 16135 H13X        34.0710   -23.3320    -3.9040 H       126  POP120      0.0265
 16136 H13Y        32.6680   -22.7360    -4.6520 H       126  POP120      0.0265
 16137 C314        33.7250   -21.2430    -3.2360 C.3     126  POP120     -0.0533
 16138 H14X        34.5780   -20.6410    -3.2990 H       126  POP120      0.0265
 16139 H14Y        33.6740   -21.7310    -2.2290 H       126  POP120      0.0265
 16140 C315        32.4870   -20.3580    -3.2580 C.3     126  POP120     -0.0559
 16141 H15X        31.6610   -20.9590    -2.8760 H       126  POP120      0.0263
 16142 H15Y        32.2310   -20.0830    -4.2830 H       126  POP120      0.0263
 16143 C316        32.6180   -19.1300    -2.2990 C.3     126  POP120     -0.0653
 16144 H16X        32.6630   -19.5280    -1.2260 H       126  POP120      0.0230
 16145 H16Y        31.7290   -18.4920    -2.4570 H       126  POP120      0.0230
 16146 H16Z        33.5000   -18.5440    -2.4180 H       126  POP120      0.0230
 16147 N           31.1520    30.1360   -24.6330 N.3     127  POP121      0.2385
 16148 C12         32.2450    29.8960   -23.5740 C.3     127  POP121     -0.0064
 16149 H12A        33.0880    30.4570   -23.7510 H       127  POP121      0.0838
 16150 H12B        32.4900    28.8110   -23.5500 H       127  POP121      0.0838
 16151 C13         30.0170    29.2040   -24.4490 C.3     127  POP121     -0.0417
 16152 H13A        29.7350    29.2720   -23.3900 H       127  POP121      0.0778
 16153 H13B        29.1280    29.5940   -24.9560 H       127  POP121      0.0778
 16154 H13C        30.2610    28.1710   -24.6580 H       127  POP121      0.0778
 16155 C14         30.7510    31.5220   -24.4240 C.3     127  POP121     -0.0417
 16156 H14A        30.3130    31.5190   -23.4010 H       127  POP121      0.0778
 16157 H14B        31.6900    32.1140   -24.5370 H       127  POP121      0.0778
 16158 H14C        29.9690    31.7770   -25.1150 H       127  POP121      0.0778
 16159 C15         31.6370    30.0260   -26.0530 C.3     127  POP121     -0.0417
 16160 H15A        31.9480    29.0370   -26.3030 H       127  POP121      0.0778
 16161 H15B        32.5120    30.6460   -26.2500 H       127  POP121      0.0778
 16162 H15C        30.9220    30.3350   -26.7700 H       127  POP121      0.0778
 16163 C11         31.8040    30.0910   -22.0960 C.3     127  POP121      0.0954
 16164 H11A        31.7250    31.1720   -21.8940 H       127  POP121      0.0618
 16165 H11B        32.6900    29.6960   -21.4730 H       127  POP121      0.0618
 16166 P           30.5940    28.0680   -21.0460 P.3     127  POP121      0.2645
 16167 O13         31.6170    27.2630   -21.7100 O.co2   127  POP121     -0.5105
 16168 O14         29.2740    27.4430   -21.0180 O.co2   127  POP121     -0.5105
 16169 O12         30.5470    29.5220   -21.7380 O.3     127  POP121     -0.3154
 16170 O11         31.1330    28.3310   -19.6000 O.3     127  POP121     -0.3181
 16171 C1          30.8180    29.5910   -18.9750 C.3     127  POP121      0.0845
 16172 HA          30.0520    30.1580   -19.4780 H       127  POP121      0.0591
 16173 HB          31.7180    30.2300   -19.1620 H       127  POP121      0.0591
 16174 C2          30.3500    29.4080   -17.5330 C.3     127  POP121      0.1155
 16175 HS          30.0150    30.4400   -17.1490 H       127  POP121      0.0649
 16176 O21         31.3700    28.8810   -16.7210 O.3     127  POP121     -0.3072
 16177 C21         32.4040    29.7000   -16.5520 C.2     127  POP121      0.2626
 16178 O22         32.4200    30.8240   -16.9920 O.2     127  POP121     -0.2650
 16179 C22         33.5470    29.0870   -15.6830 C.3     127  POP121      0.0332
 16180 H2R         33.0200    28.6610   -14.7790 H       127  POP121      0.0366
 16181 H2S         34.2710    29.8420   -15.4190 H       127  POP121      0.0366
 16182 C3          29.0370    28.4390   -17.4180 C.3     127  POP121      0.0860
 16183 HX          29.4750    27.4380   -17.8080 H       127  POP121      0.0593
 16184 HY          28.2570    28.8990   -18.0850 H       127  POP121      0.0593
 16185 O31         28.4840    28.1730   -16.0500 O.3     127  POP121     -0.3125
 16186 C31         27.7330    29.2090   -15.6120 C.2     127  POP121      0.2622
 16187 O32         27.5880    30.2480   -16.1960 O.2     127  POP121     -0.2650
 16188 C32         27.0320    28.7240   -14.3950 C.3     127  POP121      0.0332
 16189 H2X         27.6570    27.8870   -13.9740 H       127  POP121      0.0366
 16190 H2Y         26.0610    28.2660   -14.6520 H       127  POP121      0.0366
 16191 C23         34.2490    27.7990   -16.3590 C.3     127  POP121     -0.0441
 16192 H3R         34.9060    28.0170   -17.2780 H       127  POP121      0.0270
 16193 H3S         33.5520    26.9520   -16.6830 H       127  POP121      0.0270
 16194 C24         35.1940    27.1250   -15.3070 C.3     127  POP121     -0.0526
 16195 H4R         34.7200    27.2700   -14.2720 H       127  POP121      0.0265
 16196 H4S         36.1930    27.6340   -15.4050 H       127  POP121      0.0265
 16197 C25         35.4450    25.5910   -15.6440 C.3     127  POP121     -0.0530
 16198 H5R         35.3970    25.3850   -16.7170 H       127  POP121      0.0265
 16199 H5S         34.5520    25.0180   -15.3000 H       127  POP121      0.0265
 16200 C26         36.6320    24.9130   -15.0420 C.3     127  POP121     -0.0528
 16201 H6R         36.7770    25.2310   -13.9120 H       127  POP121      0.0265
 16202 H6S         37.5450    25.1570   -15.6700 H       127  POP121      0.0265
 16203 C27         36.4450    23.4450   -14.9490 C.3     127  POP121     -0.0496
 16204 H7R         36.3240    23.0130   -15.9800 H       127  POP121      0.0268
 16205 H7S         35.5270    23.1700   -14.3130 H       127  POP121      0.0268
 16206 C28         37.6410    22.8930   -14.1030 C.3     127  POP121     -0.0348
 16207 H8R         37.6970    23.4550   -13.1250 H       127  POP121      0.0307
 16208 H8S         38.6090    23.1230   -14.6000 H       127  POP121      0.0307
 16209 C29         37.4920    21.4510   -13.9090 C.2     127  POP121     -0.0879
 16210 H91         37.4990    20.9790   -14.8570 H       127  POP121      0.0569
 16211 C210        37.2080    20.6660   -12.8640 C.2     127  POP121     -0.0879
 16212 H101        37.0500    19.5940   -13.0860 H       127  POP121      0.0569
 16213 C211        37.1450    21.0730   -11.4270 C.3     127  POP121     -0.0348
 16214 H11R        37.4590    22.0980   -11.3710 H       127  POP121      0.0307
 16215 H11S        37.8360    20.4140   -10.8360 H       127  POP121      0.0307
 16216 C212        35.7610    21.0130   -10.7920 C.3     127  POP121     -0.0496
 16217 H12R        35.7510    20.7400    -9.7100 H       127  POP121      0.0268
 16218 H12S        35.1790    20.1170   -11.4150 H       127  POP121      0.0268
 16219 C213        35.0290    22.3700   -10.9410 C.3     127  POP121     -0.0528
 16220 H13R        34.0080    22.2570   -10.6970 H       127  POP121      0.0265
 16221 H13S        35.1090    22.6850   -11.9720 H       127  POP121      0.0265
 16222 C214        35.5950    23.5950   -10.1410 C.3     127  POP121     -0.0530
 16223 H14R        34.9240    24.5010   -10.4140 H       127  POP121      0.0265
 16224 H14S        36.6100    23.9470   -10.5400 H       127  POP121      0.0265
 16225 C215        35.5980    23.6050    -8.6520 C.3     127  POP121     -0.0531
 16226 H15R        36.0310    22.6460    -8.2950 H       127  POP121      0.0265
 16227 H15S        34.5490    23.4710    -8.2900 H       127  POP121      0.0265
 16228 C216        36.2330    24.8430    -8.0550 C.3     127  POP121     -0.0533
 16229 H16R        35.9980    25.0430    -7.0130 H       127  POP121      0.0265
 16230 H16S        35.8950    25.7280    -8.4670 H       127  POP121      0.0265
 16231 C217        37.7000    24.8130    -8.1500 C.3     127  POP121     -0.0559
 16232 H17R        38.0180    24.5300    -9.1440 H       127  POP121      0.0263
 16233 H17S        38.1850    24.0260    -7.4600 H       127  POP121      0.0263
 16234 C218        38.4370    26.1480    -7.8810 C.3     127  POP121     -0.0653
 16235 H18R        39.5050    26.0030    -7.9490 H       127  POP121      0.0230
 16236 H18S        38.3390    26.4540    -6.8170 H       127  POP121      0.0230
 16237 H18T        38.0920    26.9040    -8.5940 H       127  POP121      0.0230
 16238 C33         26.8670    29.8220   -13.3320 C.3     127  POP121     -0.0441
 16239 H3X         26.2240    30.6090   -13.6950 H       127  POP121      0.0270
 16240 H3Y         27.8550    30.3070   -13.0970 H       127  POP121      0.0270
 16241 C34         26.2780    29.3230   -11.9790 C.3     127  POP121     -0.0526
 16242 H4X         25.4220    28.6550   -12.1710 H       127  POP121      0.0265
 16243 H4Y         25.9600    30.1590   -11.4180 H       127  POP121      0.0265
 16244 C35         27.2580    28.5870   -11.0430 C.3     127  POP121     -0.0530
 16245 H5X         28.1830    29.1670   -11.0360 H       127  POP121      0.0265
 16246 H5Y         27.4930    27.5400   -11.4210 H       127  POP121      0.0265
 16247 C36         26.7280    28.6130    -9.5910 C.3     127  POP121     -0.0531
 16248 H6X         25.8400    27.8630    -9.6270 H       127  POP121      0.0265
 16249 H6Y         26.2040    29.5540    -9.4370 H       127  POP121      0.0265
 16250 C37         27.7220    28.4000    -8.4970 C.3     127  POP121     -0.0531
 16251 H7X         28.3800    29.2920    -8.4890 H       127  POP121      0.0265
 16252 H7Y         28.4900    27.6230    -8.6480 H       127  POP121      0.0265
 16253 C38         27.0010    28.1680    -7.1690 C.3     127  POP121     -0.0531
 16254 H8X         26.4270    27.2470    -7.1140 H       127  POP121      0.0265
 16255 H8Y         26.4110    29.0310    -7.0210 H       127  POP121      0.0265
 16256 C39         27.9590    28.1040    -6.0060 C.3     127  POP121     -0.0531
 16257 H9X         28.6590    29.0050    -6.1380 H       127  POP121      0.0265
 16258 H9Y         28.4650    27.1960    -6.1440 H       127  POP121      0.0265
 16259 C310        27.3260    27.8780    -4.6060 C.3     127  POP121     -0.0531
 16260 H10X        26.4920    27.1880    -4.6970 H       127  POP121      0.0265
 16261 H10Y        26.8400    28.8510    -4.2190 H       127  POP121      0.0265
 16262 C311        28.3100    27.3300    -3.4710 C.3     127  POP121     -0.0531
 16263 H11X        29.3090    27.8850    -3.2770 H       127  POP121      0.0265
 16264 H11Y        28.5560    26.3290    -3.7050 H       127  POP121      0.0265
 16265 C312        27.4840    27.3440    -2.0860 C.3     127  POP121     -0.0531
 16266 H12X        26.5740    26.7130    -2.2090 H       127  POP121      0.0265
 16267 H12Y        27.2140    28.4080    -2.0720 H       127  POP121      0.0265
 16268 C313        28.2090    26.9480    -0.8530 C.3     127  POP121     -0.0531
 16269 H13X        29.2610    27.3670    -0.8570 H       127  POP121      0.0265
 16270 H13Y        28.3050    25.8360    -0.7740 H       127  POP121      0.0265
 16271 C314        27.4730    27.3340     0.4350 C.3     127  POP121     -0.0533
 16272 H14X        28.1170    27.0720     1.2510 H       127  POP121      0.0265
 16273 H14Y        26.5880    26.7360     0.5110 H       127  POP121      0.0265
 16274 C315        27.1540    28.8760     0.5270 C.3     127  POP121     -0.0559
 16275 H15X        26.8420    29.1550     1.6000 H       127  POP121      0.0263
 16276 H15Y        26.3190    29.2650    -0.1400 H       127  POP121      0.0263
 16277 C316        28.3300    29.7770     0.2840 C.3     127  POP121     -0.0653
 16278 H16X        29.1290    29.2540     0.8240 H       127  POP121      0.0230
 16279 H16Y        28.3240    30.8560     0.7220 H       127  POP121      0.0230
 16280 H16Z        28.5680    29.8240    -0.7940 H       127  POP121      0.0230
 16281 N          -22.5500   -23.4230   -26.0650 N.3     128  POP122      0.2385
 16282 C12        -22.5260   -22.5800   -24.7630 C.3     128  POP122     -0.0064
 16283 H12A       -23.5210   -22.7640   -24.1980 H       128  POP122      0.0838
 16284 H12B       -22.4510   -21.5470   -25.0300 H       128  POP122      0.0838
 16285 C13        -23.6320   -22.9530   -26.9810 C.3     128  POP122     -0.0417
 16286 H13A       -24.5690   -23.0420   -26.4060 H       128  POP122      0.0778
 16287 H13B       -23.4860   -21.9340   -27.4110 H       128  POP122      0.0778
 16288 H13C       -23.7560   -23.7360   -27.7850 H       128  POP122      0.0778
 16289 C14        -21.2250   -23.3130   -26.7160 C.3     128  POP122     -0.0417
 16290 H14A       -20.9270   -22.3490   -27.1070 H       128  POP122      0.0778
 16291 H14B       -20.4070   -23.6770   -26.0450 H       128  POP122      0.0778
 16292 H14C       -21.2390   -24.0220   -27.6300 H       128  POP122      0.0778
 16293 C15        -22.9410   -24.8730   -25.7350 C.3     128  POP122     -0.0417
 16294 H15A       -23.8940   -24.9670   -25.2230 H       128  POP122      0.0778
 16295 H15B       -22.2910   -25.3020   -24.9870 H       128  POP122      0.0778
 16296 H15C       -23.0190   -25.4430   -26.7030 H       128  POP122      0.0778
 16297 C11        -21.3800   -22.8240   -23.7580 C.3     128  POP122      0.0954
 16298 H11A       -21.6080   -22.0080   -23.0160 H       128  POP122      0.0618
 16299 H11B       -20.4620   -22.7360   -24.2820 H       128  POP122      0.0618
 16300 P          -21.0130   -24.3170   -21.5370 P.3     128  POP122      0.2645
 16301 O13        -19.5060   -24.1930   -21.5330 O.co2   128  POP122     -0.5105
 16302 O14        -21.6980   -25.5190   -21.0820 O.co2   128  POP122     -0.5105
 16303 O12        -21.4920   -24.0580   -23.0760 O.3     128  POP122     -0.3154
 16304 O11        -21.5840   -23.1050   -20.6780 O.3     128  POP122     -0.3181
 16305 C1         -22.9840   -23.0670   -20.4560 C.3     128  POP122      0.0845
 16306 HA         -23.4530   -24.0120   -20.0930 H       128  POP122      0.0591
 16307 HB         -23.6650   -22.7110   -21.2890 H       128  POP122      0.0591
 16308 C2         -23.3240   -22.0670   -19.2680 C.3     128  POP122      0.1155
 16309 HS         -22.8790   -21.1120   -19.6430 H       128  POP122      0.0649
 16310 O21        -22.7210   -22.4810   -18.0020 O.3     128  POP122     -0.3072
 16311 C21        -21.4580   -22.2030   -17.8990 C.2     128  POP122      0.2626
 16312 O22        -20.7750   -21.5620   -18.6940 O.2     128  POP122     -0.2650
 16313 C22        -21.0690   -22.7580   -16.5930 C.3     128  POP122      0.0332
 16314 H2R        -20.7660   -23.8230   -16.8370 H       128  POP122      0.0366
 16315 H2S        -21.8970   -22.6750   -15.9080 H       128  POP122      0.0366
 16316 C3         -24.8010   -21.7960   -19.0690 C.3     128  POP122      0.0860
 16317 HX         -25.2240   -22.7460   -18.6370 H       128  POP122      0.0593
 16318 HY         -25.2760   -21.5770   -20.0550 H       128  POP122      0.0593
 16319 O31        -25.1100   -20.7490   -18.0990 O.3     128  POP122     -0.3125
 16320 C31        -24.6100   -19.4900   -18.4460 C.2     128  POP122      0.2622
 16321 O32        -24.2040   -19.2180   -19.4960 O.2     128  POP122     -0.2650
 16322 C32        -24.6950   -18.5260   -17.2930 C.3     128  POP122      0.0332
 16323 H2X        -25.5780   -18.9380   -16.7250 H       128  POP122      0.0366
 16324 H2Y        -24.8820   -17.4530   -17.6470 H       128  POP122      0.0366
 16325 C23        -19.7880   -22.1290   -16.0910 C.3     128  POP122     -0.0441
 16326 H3R        -20.0450   -21.0910   -15.6960 H       128  POP122      0.0270
 16327 H3S        -19.0390   -21.9990   -16.8800 H       128  POP122      0.0270
 16328 C24        -19.1460   -22.9810   -14.9400 C.3     128  POP122     -0.0526
 16329 H4R        -18.8980   -23.9560   -15.3360 H       128  POP122      0.0265
 16330 H4S        -19.9940   -23.2870   -14.2840 H       128  POP122      0.0265
 16331 C25        -17.8930   -22.4080   -14.2280 C.3     128  POP122     -0.0530
 16332 H5R        -17.9960   -21.3200   -13.9620 H       128  POP122      0.0265
 16333 H5S        -17.0870   -22.5140   -14.9070 H       128  POP122      0.0265
 16334 C26        -17.5980   -23.1340   -12.9510 C.3     128  POP122     -0.0528
 16335 H6R        -16.8680   -22.4440   -12.4520 H       128  POP122      0.0265
 16336 H6S        -17.0850   -24.0030   -13.3760 H       128  POP122      0.0265
 16337 C27        -18.7370   -23.5220   -12.0080 C.3     128  POP122     -0.0496
 16338 H7R        -19.6000   -23.9640   -12.6430 H       128  POP122      0.0268
 16339 H7S        -19.1850   -22.6150   -11.6120 H       128  POP122      0.0268
 16340 C28        -18.2630   -24.5340   -10.9240 C.3     128  POP122     -0.0348
 16341 H8R        -19.1270   -24.5650   -10.2790 H       128  POP122      0.0307
 16342 H8S        -17.4350   -24.0850   -10.3380 H       128  POP122      0.0307
 16343 C29        -17.7950   -25.8920   -11.4910 C.2     128  POP122     -0.0879
 16344 H91        -16.9910   -25.7950   -12.2500 H       128  POP122      0.0569
 16345 C210       -18.2310   -27.1030   -11.1750 C.2     128  POP122     -0.0879
 16346 H101       -17.5280   -27.9780   -11.6740 H       128  POP122      0.0569
 16347 C211       -19.1620   -27.4230   -10.0600 C.3     128  POP122     -0.0348
 16348 H11R       -20.1670   -27.4970   -10.6160 H       128  POP122      0.0307
 16349 H11S       -19.1720   -26.5540    -9.3790 H       128  POP122      0.0307
 16350 C212       -18.8690   -28.7150    -9.3390 C.3     128  POP122     -0.0496
 16351 H12R       -17.8840   -28.6380    -8.8500 H       128  POP122      0.0268
 16352 H12S       -18.8210   -29.6460    -9.8910 H       128  POP122      0.0268
 16353 C213       -19.8880   -28.7850    -8.2430 C.3     128  POP122     -0.0528
 16354 H13R       -20.8310   -28.9370    -8.8620 H       128  POP122      0.0265
 16355 H13S       -20.0920   -27.8610    -7.6460 H       128  POP122      0.0265
 16356 C214       -19.8150   -29.9580    -7.2950 C.3     128  POP122     -0.0530
 16357 H14R       -19.6070   -29.5390    -6.2660 H       128  POP122      0.0265
 16358 H14S       -18.9560   -30.6290    -7.5020 H       128  POP122      0.0265
 16359 C215       -21.1000   -30.8180    -7.3230 C.3     128  POP122     -0.0531
 16360 H15R       -21.4380   -30.8990    -8.3720 H       128  POP122      0.0265
 16361 H15S       -21.9330   -30.3770    -6.7310 H       128  POP122      0.0265
 16362 C216       -20.8970   -32.2050    -6.7820 C.3     128  POP122     -0.0533
 16363 H16R       -21.0250   -32.0750    -5.6830 H       128  POP122      0.0265
 16364 H16S       -19.9080   -32.4720    -7.1650 H       128  POP122      0.0265
 16365 C217       -21.8130   -33.3540    -7.2790 C.3     128  POP122     -0.0559
 16366 H17R       -21.8200   -33.3240    -8.4340 H       128  POP122      0.0263
 16367 H17S       -22.8920   -33.2200    -6.9630 H       128  POP122      0.0263
 16368 C218       -21.2720   -34.6540    -6.8460 C.3     128  POP122     -0.0653
 16369 H18R       -21.1280   -34.7340    -5.6840 H       128  POP122      0.0230
 16370 H18S       -20.2650   -34.7230    -7.2630 H       128  POP122      0.0230
 16371 H18T       -21.9690   -35.4320    -7.2930 H       128  POP122      0.0230
 16372 C33        -23.2960   -18.3730   -16.5120 C.3     128  POP122     -0.0441
 16373 H3X        -23.0730   -17.3160   -16.3030 H       128  POP122      0.0270
 16374 H3Y        -22.4250   -18.6850   -17.1350 H       128  POP122      0.0270
 16375 C34        -23.3280   -19.1680   -15.1670 C.3     128  POP122     -0.0526
 16376 H4X        -23.3790   -20.2830   -15.4820 H       128  POP122      0.0265
 16377 H4Y        -24.2480   -18.8640   -14.6090 H       128  POP122      0.0265
 16378 C35        -22.1870   -18.9400   -14.1550 C.3     128  POP122     -0.0530
 16379 H5X        -21.9880   -17.8860   -14.1490 H       128  POP122      0.0265
 16380 H5Y        -21.2540   -19.2930   -14.6070 H       128  POP122      0.0265
 16381 C36        -22.5300   -19.4590   -12.7570 C.3     128  POP122     -0.0531
 16382 H6X        -22.6020   -20.5930   -12.7890 H       128  POP122      0.0265
 16383 H6Y        -23.5250   -19.1520   -12.4480 H       128  POP122      0.0265
 16384 C37        -21.5330   -19.0860   -11.6760 C.3     128  POP122     -0.0531
 16385 H7X        -21.2170   -18.1110   -11.9010 H       128  POP122      0.0265
 16386 H7Y        -20.6300   -19.7740   -11.9260 H       128  POP122      0.0265
 16387 C38        -22.0120   -19.1400   -10.1990 C.3     128  POP122     -0.0531
 16388 H8X        -22.2300   -20.1900    -9.8180 H       128  POP122      0.0265
 16389 H8Y        -23.0030   -18.5880   -10.1970 H       128  POP122      0.0265
 16390 C39        -20.9750   -18.5060    -9.2120 C.3     128  POP122     -0.0531
 16391 H9X        -20.1220   -19.1260    -9.1460 H       128  POP122      0.0265
 16392 H9Y        -21.4240   -18.5240    -8.2090 H       128  POP122      0.0265
 16393 C310       -20.6600   -17.1040    -9.5750 C.3     128  POP122     -0.0531
 16394 H10X       -21.5890   -16.6700    -9.9610 H       128  POP122      0.0265
 16395 H10Y       -19.8860   -17.0640   -10.3310 H       128  POP122      0.0265
 16396 C311       -20.2180   -16.3250    -8.3080 C.3     128  POP122     -0.0531
 16397 H11X       -19.1760   -16.6480    -7.9860 H       128  POP122      0.0265
 16398 H11Y       -20.8770   -16.4890    -7.3900 H       128  POP122      0.0265
 16399 C312       -20.1290   -14.8120    -8.5150 C.3     128  POP122     -0.0531
 16400 H12X       -19.3180   -14.6860    -9.2400 H       128  POP122      0.0265
 16401 H12Y       -19.7090   -14.1880    -7.6820 H       128  POP122      0.0265
 16402 C313       -21.4280   -14.1100    -9.0870 C.3     128  POP122     -0.0531
 16403 H13X       -22.2450   -14.0860    -8.3120 H       128  POP122      0.0265
 16404 H13Y       -21.7400   -14.6980    -9.9690 H       128  POP122      0.0265
 16405 C314       -21.1120   -12.6180    -9.4640 C.3     128  POP122     -0.0533
 16406 H14X       -20.1770   -12.6420   -10.1590 H       128  POP122      0.0265
 16407 H14Y       -20.8160   -12.0090    -8.5520 H       128  POP122      0.0265
 16408 C315       -22.3060   -12.0150   -10.3080 C.3     128  POP122     -0.0559
 16409 H15X       -23.0730   -11.6860    -9.6070 H       128  POP122      0.0263
 16410 H15Y       -22.7230   -12.7740   -10.9140 H       128  POP122      0.0263
 16411 C316       -21.8030   -10.9320   -11.3200 C.3     128  POP122     -0.0653
 16412 H16X       -21.3170   -11.4560   -12.2550 H       128  POP122      0.0230
 16413 H16Y       -21.1590   -10.1720   -10.7360 H       128  POP122      0.0230
 16414 H16Z       -22.6150   -10.3830   -11.6750 H       128  POP122      0.0230
 16415 N           21.7600    -0.4260   -17.9780 N.3     129  POP123      0.2385
 16416 C12         20.9950    -0.1840   -16.6550 C.3     129  POP123     -0.0064
 16417 H12A        20.8710    -1.1030   -16.0780 H       129  POP123      0.0838
 16418 H12B        19.9420     0.0650   -16.8760 H       129  POP123      0.0838
 16419 C13         23.1750    -0.7400   -17.7040 C.3     129  POP123     -0.0417
 16420 H13A        23.6480     0.0780   -17.2240 H       129  POP123      0.0778
 16421 H13B        23.4030    -1.5550   -17.1280 H       129  POP123      0.0778
 16422 H13C        23.7500    -0.5620   -18.6210 H       129  POP123      0.0778
 16423 C14         21.2010    -1.5890   -18.7310 C.3     129  POP123     -0.0417
 16424 H14A        20.6000    -2.2470   -18.1640 H       129  POP123      0.0778
 16425 H14B        20.4380    -1.1950   -19.4510 H       129  POP123      0.0778
 16426 H14C        22.0620    -2.0890   -19.2860 H       129  POP123      0.0778
 16427 C15         21.7780     0.7550   -18.9010 C.3     129  POP123     -0.0417
 16428 H15A        22.2370     0.5770   -19.8770 H       129  POP123      0.0778
 16429 H15B        22.3880     1.5340   -18.3970 H       129  POP123      0.0778
 16430 H15C        20.8040     1.1040   -19.1330 H       129  POP123      0.0778
 16431 C11         21.4700     0.9010   -15.6780 C.3     129  POP123      0.0954
 16432 H11A        22.4800     0.5050   -15.5100 H       129  POP123      0.0618
 16433 H11B        20.8420     0.7680   -14.6820 H       129  POP123      0.0618
 16434 P           22.4020     3.3100   -15.7220 P.3     129  POP123      0.2645
 16435 O13         21.8300     4.6200   -15.7690 O.co2   129  POP123     -0.5105
 16436 O14         23.7110     3.1560   -16.4190 O.co2   129  POP123     -0.5105
 16437 O12         21.3790     2.1800   -16.3620 O.3     129  POP123     -0.3154
 16438 O11         22.5130     2.7830   -14.2210 O.3     129  POP123     -0.3181
 16439 C1          23.7020     2.8610   -13.4190 C.3     129  POP123      0.0845
 16440 HA          24.5470     3.2970   -14.0970 H       129  POP123      0.0591
 16441 HB          23.9790     1.9030   -13.0090 H       129  POP123      0.0591
 16442 C2          23.7180     3.8280   -12.1780 C.3     129  POP123      0.1155
 16443 HS          24.8450     3.9120   -11.8980 H       129  POP123      0.0649
 16444 O21         22.9150     3.3540   -11.0870 O.3     129  POP123     -0.3072
 16445 C21         23.4230     2.3260   -10.5180 C.2     129  POP123      0.2626
 16446 O22         24.5080     1.8500   -10.7580 O.2     129  POP123     -0.2650
 16447 C22         22.5700     1.7220    -9.4320 C.3     129  POP123      0.0332
 16448 H2R         22.9940     0.7410    -9.1660 H       129  POP123      0.0366
 16449 H2S         21.5680     1.6660    -9.7780 H       129  POP123      0.0366
 16450 C3          23.2220     5.2530   -12.5330 C.3     129  POP123      0.0860
 16451 HX          22.0790     5.1510   -12.7630 H       129  POP123      0.0593
 16452 HY          23.7230     5.6090   -13.4980 H       129  POP123      0.0593
 16453 O31         23.5360     6.1750   -11.4830 O.3     129  POP123     -0.3125
 16454 C31         22.7430     7.1980   -11.4870 C.2     129  POP123      0.2622
 16455 O32         21.9230     7.4660   -12.3280 O.2     129  POP123     -0.2650
 16456 C32         22.9200     8.0010   -10.2900 C.3     129  POP123      0.0332
 16457 H2X         22.8860     9.0780   -10.5400 H       129  POP123      0.0366
 16458 H2Y         23.8770     7.7050    -9.8380 H       129  POP123      0.0366
 16459 C23         22.4350     2.4630    -8.1040 C.3     129  POP123     -0.0441
 16460 H3R         22.0090     1.8540    -7.2660 H       129  POP123      0.0270
 16461 H3S         21.6310     3.3410    -8.1430 H       129  POP123      0.0270
 16462 C24         23.6130     3.2960    -7.5430 C.3     129  POP123     -0.0526
 16463 H4R         23.8470     3.9240    -8.4180 H       129  POP123      0.0265
 16464 H4S         24.4130     2.5470    -7.2490 H       129  POP123      0.0265
 16465 C25         23.2520     4.2600    -6.4270 C.3     129  POP123     -0.0530
 16466 H5R         22.9790     3.6300    -5.5970 H       129  POP123      0.0265
 16467 H5S         22.3080     4.7450    -6.7770 H       129  POP123      0.0265
 16468 C26         24.1610     5.4350    -6.1880 C.3     129  POP123     -0.0528
 16469 H6R         23.6850     6.1440    -5.5320 H       129  POP123      0.0265
 16470 H6S         24.4010     5.9810    -7.1500 H       129  POP123      0.0265
 16471 C27         25.5930     5.0500    -5.7320 C.3     129  POP123     -0.0496
 16472 H7R         26.1840     5.9710    -6.0230 H       129  POP123      0.0268
 16473 H7S         26.0370     4.2420    -6.3630 H       129  POP123      0.0268
 16474 C28         25.6850     4.7990    -4.2080 C.3     129  POP123     -0.0348
 16475 H8R         24.7460     4.2070    -3.9710 H       129  POP123      0.0307
 16476 H8S         25.7350     5.7210    -3.5990 H       129  POP123      0.0307
 16477 C29         26.9720     4.0240    -3.8430 C.2     129  POP123     -0.0879
 16478 H91         26.9310     3.0440    -4.2300 H       129  POP123      0.0569
 16479 C210        27.9920     4.2790    -3.0080 C.2     129  POP123     -0.0879
 16480 H101        28.7220     3.5000    -2.9980 H       129  POP123      0.0569
 16481 C211        28.2100     5.4340    -2.0570 C.3     129  POP123     -0.0348
 16482 H11R        27.2420     6.0070    -1.9770 H       129  POP123      0.0307
 16483 H11S        28.9430     6.1690    -2.4580 H       129  POP123      0.0307
 16484 C212        28.6460     5.1280    -0.6120 C.3     129  POP123     -0.0496
 16485 H12R        27.9030     4.4380    -0.1780 H       129  POP123      0.0268
 16486 H12S        28.6370     6.0970    -0.1290 H       129  POP123      0.0268
 16487 C213        30.0150     4.4880    -0.6030 C.3     129  POP123     -0.0528
 16488 H13R        30.7930     5.1510    -1.0700 H       129  POP123      0.0265
 16489 H13S        30.0960     3.4690    -1.0640 H       129  POP123      0.0265
 16490 C214        30.4420     4.2660     0.8440 C.3     129  POP123     -0.0530
 16491 H14R        29.6240     3.6410     1.3060 H       129  POP123      0.0265
 16492 H14S        30.5510     5.2520     1.3150 H       129  POP123      0.0265
 16493 C215        31.7590     3.4730     0.9060 C.3     129  POP123     -0.0531
 16494 H15R        32.4200     3.9030     0.1220 H       129  POP123      0.0265
 16495 H15S        31.4930     2.3920     0.6110 H       129  POP123      0.0265
 16496 C216        32.3390     3.3000     2.3050 C.3     129  POP123     -0.0533
 16497 H16R        31.5960     2.7290     2.8760 H       129  POP123      0.0265
 16498 H16S        32.5920     4.3010     2.8190 H       129  POP123      0.0265
 16499 C217        33.5430     2.3490     2.4060 C.3     129  POP123     -0.0559
 16500 H17R        34.2560     2.7870     1.6520 H       129  POP123      0.0263
 16501 H17S        33.2780     1.2870     2.0720 H       129  POP123      0.0263
 16502 C218        34.1510     2.3260     3.8030 C.3     129  POP123     -0.0653
 16503 H18R        33.3980     2.1070     4.5420 H       129  POP123      0.0230
 16504 H18S        34.5710     3.3150     3.9990 H       129  POP123      0.0230
 16505 H18T        34.9700     1.5510     3.8740 H       129  POP123      0.0230
 16506 C33         21.8300     7.5560    -9.2970 C.3     129  POP123     -0.0441
 16507 H3X         22.0580     6.4790    -8.9950 H       129  POP123      0.0270
 16508 H3Y         20.8360     7.6250    -9.6770 H       129  POP123      0.0270
 16509 C34         21.8770     8.3130    -7.9880 C.3     129  POP123     -0.0526
 16510 H4X         21.4220     9.3260    -7.9670 H       129  POP123      0.0265
 16511 H4Y         22.9950     8.5180    -7.7820 H       129  POP123      0.0265
 16512 C35         21.0590     7.5790    -6.9440 C.3     129  POP123     -0.0530
 16513 H5X         21.3460     6.5290    -6.8840 H       129  POP123      0.0265
 16514 H5Y         20.0090     7.4850    -7.1500 H       129  POP123      0.0265
 16515 C36         21.3470     8.1180    -5.5350 C.3     129  POP123     -0.0531
 16516 H6X         21.1600     9.2480    -5.6140 H       129  POP123      0.0265
 16517 H6Y         22.4200     8.0870    -5.1640 H       129  POP123      0.0265
 16518 C37         20.4020     7.5810    -4.4770 C.3     129  POP123     -0.0531
 16519 H7X         19.3210     7.4040    -4.9180 H       129  POP123      0.0265
 16520 H7Y         20.4760     8.2960    -3.6340 H       129  POP123      0.0265
 16521 C38         20.8520     6.2330    -3.8900 C.3     129  POP123     -0.0531
 16522 H8X         20.9370     5.4310    -4.7130 H       129  POP123      0.0265
 16523 H8Y         20.0390     5.8960    -3.1540 H       129  POP123      0.0265
 16524 C39         22.0540     6.3930    -2.9760 C.3     129  POP123     -0.0531
 16525 H9X         21.8270     7.1500    -2.1890 H       129  POP123      0.0265
 16526 H9Y         22.9420     6.7860    -3.5660 H       129  POP123      0.0265
 16527 C310        22.3290     4.9910    -2.4350 C.3     129  POP123     -0.0531
 16528 H10X        22.7200     4.2370    -3.2390 H       129  POP123      0.0265
 16529 H10Y        21.4310     4.5970    -1.9330 H       129  POP123      0.0265
 16530 C311        23.3340     5.1770    -1.3020 C.3     129  POP123     -0.0531
 16531 H11X        24.3010     5.7080    -1.5720 H       129  POP123      0.0265
 16532 H11Y        23.6940     4.1460    -1.0120 H       129  POP123      0.0265
 16533 C312        22.8790     5.8420     0.0140 C.3     129  POP123     -0.0531
 16534 H12X        21.8520     5.4500     0.1920 H       129  POP123      0.0265
 16535 H12Y        22.8650     6.9300    -0.0670 H       129  POP123      0.0265
 16536 C313        23.6030     5.5170     1.2970 C.3     129  POP123     -0.0531
 16537 H13X        24.5760     6.1350     1.2110 H       129  POP123      0.0265
 16538 H13Y        23.7840     4.4340     1.4100 H       129  POP123      0.0265
 16539 C314        22.9300     5.9810     2.5630 C.3     129  POP123     -0.0533
 16540 H14X        22.0320     5.3690     2.7100 H       129  POP123      0.0265
 16541 H14Y        22.6130     6.9950     2.2430 H       129  POP123      0.0265
 16542 C315        23.8210     6.0760     3.8180 C.3     129  POP123     -0.0559
 16543 H15X        24.6160     6.8540     3.6090 H       129  POP123      0.0263
 16544 H15Y        24.2880     5.0910     3.9420 H       129  POP123      0.0263
 16545 C316        23.2990     6.4060     5.2160 C.3     129  POP123     -0.0653
 16546 H16X        22.7570     5.5900     5.7010 H       129  POP123      0.0230
 16547 H16Y        22.7280     7.3290     5.3420 H       129  POP123      0.0230
 16548 H16Z        24.1750     6.5660     5.8280 H       129  POP123      0.0230
 16549 N           30.6020   -26.6340   -23.1290 N.3     130  POP124      0.2385
 16550 C12         29.5480   -25.8680   -22.3110 C.3     130  POP124     -0.0064
 16551 H12A        29.9880   -25.6300   -21.4060 H       130  POP124      0.0838
 16552 H12B        28.7880   -26.5870   -22.1750 H       130  POP124      0.0838
 16553 C13         31.8650   -25.8120   -23.3280 C.3     130  POP124     -0.0417
 16554 H13A        31.5730   -24.8940   -23.7290 H       130  POP124      0.0778
 16555 H13B        32.3790   -25.6880   -22.3630 H       130  POP124      0.0778
 16556 H13C        32.5070   -26.4180   -23.9130 H       130  POP124      0.0778
 16557 C14         31.0640   -27.8860   -22.5290 C.3     130  POP124     -0.0417
 16558 H14A        31.7940   -28.3400   -23.0190 H       130  POP124      0.0778
 16559 H14B        31.4430   -27.7410   -21.4990 H       130  POP124      0.0778
 16560 H14C        30.2930   -28.6280   -22.3580 H       130  POP124      0.0778
 16561 C15         29.9990   -27.0330   -24.4030 C.3     130  POP124     -0.0417
 16562 H15A        29.1300   -27.7100   -24.2330 H       130  POP124      0.0778
 16563 H15B        30.6820   -27.5780   -25.0140 H       130  POP124      0.0778
 16564 H15C        29.5530   -26.2200   -25.0120 H       130  POP124      0.0778
 16565 C11         28.9940   -24.6460   -23.0170 C.3     130  POP124      0.0954
 16566 H11A        28.2320   -24.1850   -22.2920 H       130  POP124      0.0618
 16567 H11B        28.4870   -24.9890   -23.8980 H       130  POP124      0.0618
 16568 P           30.4310   -22.7080   -22.2040 P.3     130  POP124      0.2645
 16569 O13         29.2880   -21.7680   -21.8680 O.co2   130  POP124     -0.5105
 16570 O14         31.7280   -22.1520   -22.5420 O.co2   130  POP124     -0.5105
 16571 O12         29.9120   -23.6660   -23.4030 O.3     130  POP124     -0.3154
 16572 O11         30.5750   -23.6950   -20.9720 O.3     130  POP124     -0.3181
 16573 C1          30.9950   -23.0650   -19.7230 C.3     130  POP124      0.0845
 16574 HA          30.3370   -22.2290   -19.4530 H       130  POP124      0.0591
 16575 HB          32.0330   -22.5490   -19.7840 H       130  POP124      0.0591
 16576 C2          31.0110   -24.1660   -18.6460 C.3     130  POP124      0.1155
 16577 HS          30.0960   -24.7720   -18.7800 H       130  POP124      0.0649
 16578 O21         30.9710   -23.6770   -17.3290 O.3     130  POP124     -0.3072
 16579 C21         29.8600   -23.0860   -16.9190 C.2     130  POP124      0.2626
 16580 O22         28.8460   -23.0570   -17.5390 O.2     130  POP124     -0.2650
 16581 C22         30.0670   -22.4040   -15.5140 C.3     130  POP124      0.0332
 16582 H2R         29.1440   -21.8420   -15.3610 H       130  POP124      0.0366
 16583 H2S         30.8000   -21.7110   -15.6690 H       130  POP124      0.0366
 16584 C3          32.2960   -25.0130   -18.9120 C.3     130  POP124      0.0860
 16585 HX          33.1630   -24.4600   -18.5680 H       130  POP124      0.0593
 16586 HY          32.4500   -25.1940   -20.0450 H       130  POP124      0.0593
 16587 O31         32.3490   -26.2200   -18.2220 O.3     130  POP124     -0.3125
 16588 C31         31.7030   -27.3180   -18.5720 C.2     130  POP124      0.2622
 16589 O32         30.9420   -27.4680   -19.5340 O.2     130  POP124     -0.2650
 16590 C32         32.0800   -28.3720   -17.6280 C.3     130  POP124      0.0332
 16591 H2X         33.1400   -28.6700   -17.8940 H       130  POP124      0.0366
 16592 H2Y         31.4330   -29.1490   -17.9420 H       130  POP124      0.0366
 16593 C23         30.3870   -23.2900   -14.3150 C.3     130  POP124     -0.0441
 16594 H3R         29.6350   -24.1900   -14.2180 H       130  POP124      0.0270
 16595 H3S         30.0540   -22.6370   -13.5040 H       130  POP124      0.0270
 16596 C24         31.8570   -23.7130   -14.1610 C.3     130  POP124     -0.0526
 16597 H4R         32.4600   -22.8480   -14.4380 H       130  POP124      0.0265
 16598 H4S         32.1830   -24.6050   -14.7690 H       130  POP124      0.0265
 16599 C25         32.2060   -24.1310   -12.6650 C.3     130  POP124     -0.0530
 16600 H5R         31.4960   -24.9410   -12.3880 H       130  POP124      0.0265
 16601 H5S         31.9380   -23.2110   -12.0230 H       130  POP124      0.0265
 16602 C26         33.7010   -24.5480   -12.5580 C.3     130  POP124     -0.0528
 16603 H6R         34.3220   -23.6110   -12.5240 H       130  POP124      0.0265
 16604 H6S         33.9910   -25.2230   -13.3320 H       130  POP124      0.0265
 16605 C27         33.9620   -25.2130   -11.2090 C.3     130  POP124     -0.0496
 16606 H7R         33.3050   -26.0640   -10.9780 H       130  POP124      0.0268
 16607 H7S         33.6930   -24.4230   -10.5890 H       130  POP124      0.0268
 16608 C28         35.4040   -25.6910   -11.1430 C.3     130  POP124     -0.0348
 16609 H8R         35.5830   -26.3870   -12.0250 H       130  POP124      0.0307
 16610 H8S         35.3950   -26.2660   -10.1710 H       130  POP124      0.0307
 16611 C29         36.4110   -24.5680   -10.9160 C.2     130  POP124     -0.0879
 16612 H91         36.3560   -23.7820   -11.6570 H       130  POP124      0.0569
 16613 C210        37.3050   -24.5520    -9.9760 C.2     130  POP124     -0.0879
 16614 H101        37.7860   -23.6110    -9.7870 H       130  POP124      0.0569
 16615 C211        37.7060   -25.6350    -9.0540 C.3     130  POP124     -0.0348
 16616 H11R        38.8060   -25.7440    -8.8900 H       130  POP124      0.0307
 16617 H11S        37.4090   -26.6560    -9.4700 H       130  POP124      0.0307
 16618 C212        37.0570   -25.4770    -7.6180 C.3     130  POP124     -0.0496
 16619 H12R        35.9540   -25.2490    -7.7170 H       130  POP124      0.0268
 16620 H12S        37.4870   -24.5980    -7.0230 H       130  POP124      0.0268
 16621 C213        37.1190   -26.7780    -6.8790 C.3     130  POP124     -0.0528
 16622 H13R        38.1490   -27.1440    -6.7900 H       130  POP124      0.0265
 16623 H13S        36.5070   -27.6140    -7.3150 H       130  POP124      0.0265
 16624 C214        36.6260   -26.5810    -5.4040 C.3     130  POP124     -0.0530
 16625 H14R        36.8260   -27.6630    -5.0400 H       130  POP124      0.0265
 16626 H14S        35.5300   -26.2990    -5.2870 H       130  POP124      0.0265
 16627 C215        37.3510   -25.5950    -4.5150 C.3     130  POP124     -0.0531
 16628 H15R        36.9410   -25.6820    -3.4440 H       130  POP124      0.0265
 16629 H15S        37.1190   -24.5180    -4.8490 H       130  POP124      0.0265
 16630 C216        38.8940   -25.8100    -4.5010 C.3     130  POP124     -0.0533
 16631 H16R        39.1940   -25.3960    -5.5450 H       130  POP124      0.0265
 16632 H16S        39.3340   -26.8510    -4.5390 H       130  POP124      0.0265
 16633 C217        39.5690   -24.9690    -3.3630 C.3     130  POP124     -0.0559
 16634 H17R        39.1360   -25.4830    -2.4520 H       130  POP124      0.0263
 16635 H17S        39.2610   -23.9480    -3.3500 H       130  POP124      0.0263
 16636 C218        41.1240   -25.1320    -3.2710 C.3     130  POP124     -0.0653
 16637 H18R        41.5330   -26.1170    -2.9910 H       130  POP124      0.0230
 16638 H18S        41.5730   -24.3090    -2.6560 H       130  POP124      0.0230
 16639 H18T        41.5220   -24.8620    -4.2710 H       130  POP124      0.0230
 16640 C33         31.8690   -28.0290   -16.1110 C.3     130  POP124     -0.0441
 16641 H3X         30.8170   -28.3730   -15.8970 H       130  POP124      0.0270
 16642 H3Y         32.0220   -26.9250   -15.9540 H       130  POP124      0.0270
 16643 C34         32.8280   -28.7980   -15.1500 C.3     130  POP124     -0.0526
 16644 H4X         33.8140   -28.4660   -15.3240 H       130  POP124      0.0265
 16645 H4Y         32.7830   -29.8790   -15.4730 H       130  POP124      0.0265
 16646 C35         32.5610   -28.5370   -13.6880 C.3     130  POP124     -0.0530
 16647 H5X         31.4100   -28.4830   -13.6200 H       130  POP124      0.0265
 16648 H5Y         32.9040   -27.5460   -13.4220 H       130  POP124      0.0265
 16649 C36         33.0540   -29.6490   -12.8300 C.3     130  POP124     -0.0531
 16650 H6X         34.1480   -29.7790   -13.1550 H       130  POP124      0.0265
 16651 H6Y         32.5460   -30.6470   -13.1040 H       130  POP124      0.0265
 16652 C37         32.9600   -29.4460   -11.3110 C.3     130  POP124     -0.0531
 16653 H7X         31.9070   -29.4090   -10.9910 H       130  POP124      0.0265
 16654 H7Y         33.3360   -28.3990   -10.9540 H       130  POP124      0.0265
 16655 C38         33.7790   -30.5000   -10.4770 C.3     130  POP124     -0.0531
 16656 H8X         33.3030   -31.4670   -10.7050 H       130  POP124      0.0265
 16657 H8Y         33.6160   -30.6370    -9.3480 H       130  POP124      0.0265
 16658 C39         35.3680   -30.3810   -10.6720 C.3     130  POP124     -0.0531
 16659 H9X         35.5290   -29.4460   -10.1130 H       130  POP124      0.0265
 16660 H9Y         35.6410   -30.2170   -11.7040 H       130  POP124      0.0265
 16661 C310        36.0980   -31.6150   -10.2440 C.3     130  POP124     -0.0531
 16662 H10X        37.0600   -31.5510   -10.7120 H       130  POP124      0.0265
 16663 H10Y        35.5650   -32.5020   -10.6900 H       130  POP124      0.0265
 16664 C311        36.1790   -31.9110    -8.7360 C.3     130  POP124     -0.0531
 16665 H11X        36.1340   -33.0380    -8.5750 H       130  POP124      0.0265
 16666 H11Y        35.3830   -31.3800    -8.2460 H       130  POP124      0.0265
 16667 C312        37.4500   -31.4870    -7.9840 C.3     130  POP124     -0.0531
 16668 H12X        37.7210   -30.4680    -8.3670 H       130  POP124      0.0265
 16669 H12Y        38.3270   -31.9850    -8.3220 H       130  POP124      0.0265
 16670 C313        37.3600   -31.3550    -6.4660 C.3     130  POP124     -0.0531
 16671 H13X        37.2030   -32.3570    -5.8740 H       130  POP124      0.0265
 16672 H13Y        36.4810   -30.6400    -6.1800 H       130  POP124      0.0265
 16673 C314        38.6130   -30.7330    -5.9080 C.3     130  POP124     -0.0533
 16674 H14X        38.8640   -29.6970    -6.3670 H       130  POP124      0.0265
 16675 H14Y        39.5050   -31.3430    -6.2470 H       130  POP124      0.0265
 16676 C315        38.5760   -30.4760    -4.3830 C.3     130  POP124     -0.0559
 16677 H15X        38.2940   -31.4240    -3.8690 H       130  POP124      0.0263
 16678 H15Y        37.8190   -29.6730    -4.2510 H       130  POP124      0.0263
 16679 C316        39.8980   -30.0460    -3.8050 C.3     130  POP124     -0.0653
 16680 H16X        40.3760   -29.1180    -4.2070 H       130  POP124      0.0230
 16681 H16Y        40.6800   -30.8760    -3.8200 H       130  POP124      0.0230
 16682 H16Z        39.7980   -29.8370    -2.7270 H       130  POP124      0.0230
 16683 N          -15.5790     8.0850   -16.3920 N.3     131  POP125      0.2385
 16684 C12        -15.1060     9.4850   -15.8290 C.3     131  POP125     -0.0064
 16685 H12A       -14.4410     9.2660   -14.9760 H       131  POP125      0.0838
 16686 H12B       -15.9990     9.9800   -15.4800 H       131  POP125      0.0838
 16687 C13        -16.2550     8.2740   -17.6800 C.3     131  POP125     -0.0417
 16688 H13A       -16.6250     7.3660   -18.0290 H       131  POP125      0.0778
 16689 H13B       -17.0500     9.0000   -17.5920 H       131  POP125      0.0778
 16690 H13C       -15.5970     8.7720   -18.4410 H       131  POP125      0.0778
 16691 C14        -14.2460     7.3060   -16.5830 C.3     131  POP125     -0.0417
 16692 H14A       -14.4740     6.4220   -17.2130 H       131  POP125      0.0778
 16693 H14B       -13.5280     7.8730   -17.1620 H       131  POP125      0.0778
 16694 H14C       -13.8710     7.0200   -15.5800 H       131  POP125      0.0778
 16695 C15        -16.5060     7.4160   -15.4590 C.3     131  POP125     -0.0417
 16696 H15A       -16.9700     6.6210   -15.9650 H       131  POP125      0.0778
 16697 H15B       -17.3010     8.0500   -15.0930 H       131  POP125      0.0778
 16698 H15C       -16.0110     7.2190   -14.5120 H       131  POP125      0.0778
 16699 C11        -14.3370    10.4430   -16.8640 C.3     131  POP125      0.0954
 16700 H11A       -14.1250    11.4640   -16.4300 H       131  POP125      0.0618
 16701 H11B       -14.9990    10.5220   -17.7910 H       131  POP125      0.0618
 16702 P          -11.7510    10.0810   -16.6000 P.3     131  POP125      0.2645
 16703 O13        -11.0400    11.3130   -17.0200 O.co2   131  POP125     -0.5105
 16704 O14        -11.0000     8.7860   -16.7650 O.co2   131  POP125     -0.5105
 16705 O12        -13.1350     9.9120   -17.3740 O.3     131  POP125     -0.3154
 16706 O11        -12.2960    10.1440   -15.0750 O.3     131  POP125     -0.3181
 16707 C1         -11.7980    11.3330   -14.3210 C.3     131  POP125      0.0845
 16708 HA         -12.1230    12.2130   -14.7780 H       131  POP125      0.0591
 16709 HB         -10.6630    11.3510   -14.3420 H       131  POP125      0.0591
 16710 C2         -12.3550    11.3870   -12.8010 C.3     131  POP125      0.1155
 16711 HS         -11.9160    12.3390   -12.3540 H       131  POP125      0.0649
 16712 O21        -11.9780    10.2470   -12.0410 O.3     131  POP125     -0.3072
 16713 C21        -10.6860    10.0320   -11.8660 C.2     131  POP125      0.2626
 16714 O22         -9.7730    10.7790   -12.1600 O.2     131  POP125     -0.2650
 16715 C22        -10.3850     8.6810   -11.1700 C.3     131  POP125      0.0332
 16716 H2R         -9.6220     8.2250   -11.7780 H       131  POP125      0.0366
 16717 H2S        -11.3440     8.0530   -11.2630 H       131  POP125      0.0366
 16718 C3         -13.8930    11.5050   -12.8010 C.3     131  POP125      0.0860
 16719 HX         -14.3220    10.6530   -13.3060 H       131  POP125      0.0593
 16720 HY         -14.2710    12.4310   -13.2880 H       131  POP125      0.0593
 16721 O31        -14.3290    11.5710   -11.4450 O.3     131  POP125     -0.3125
 16722 C31        -15.5920    11.4270   -11.1850 C.2     131  POP125      0.2622
 16723 O32        -16.4480    11.1210   -12.0080 O.2     131  POP125     -0.2650
 16724 C32        -15.8860    11.7040    -9.7380 C.3     131  POP125      0.0332
 16725 H2X        -15.2230    11.0840    -9.1030 H       131  POP125      0.0366
 16726 H2Y        -16.9310    11.4480    -9.4870 H       131  POP125      0.0366
 16727 C23        -10.0170     8.7970    -9.6720 C.3     131  POP125     -0.0441
 16728 H3R        -11.0410     9.1080    -9.2690 H       131  POP125      0.0270
 16729 H3S         -9.2680     9.6200    -9.4790 H       131  POP125      0.0270
 16730 C24         -9.6270     7.4500    -8.9930 C.3     131  POP125     -0.0526
 16731 H4R         -9.5110     6.5780    -9.6360 H       131  POP125      0.0265
 16732 H4S        -10.4200     7.1510    -8.3170 H       131  POP125      0.0265
 16733 C25         -8.3900     7.5390    -8.0080 C.3     131  POP125     -0.0530
 16734 H5R         -8.6320     8.2560    -7.2260 H       131  POP125      0.0265
 16735 H5S         -7.5360     7.8910    -8.5450 H       131  POP125      0.0265
 16736 C26         -8.0640     6.2080    -7.3390 C.3     131  POP125     -0.0528
 16737 H6R         -7.3990     5.6030    -8.0310 H       131  POP125      0.0265
 16738 H6S         -9.0090     5.6780    -7.2110 H       131  POP125      0.0265
 16739 C27         -7.4600     6.4220    -5.8860 C.3     131  POP125     -0.0496
 16740 H7R         -8.2710     6.6860    -5.1790 H       131  POP125      0.0268
 16741 H7S         -6.7870     7.2560    -5.9760 H       131  POP125      0.0268
 16742 C28         -6.8540     5.1060    -5.3550 C.3     131  POP125     -0.0348
 16743 H8R         -7.5420     4.2190    -5.3290 H       131  POP125      0.0307
 16744 H8S         -6.8970     5.3580    -4.1850 H       131  POP125      0.0307
 16745 C29         -5.4350     4.6800    -5.7620 C.2     131  POP125     -0.0879
 16746 H91         -5.3050     4.6290    -6.9270 H       131  POP125      0.0569
 16747 C210        -4.4910     4.2680    -4.9250 C.2     131  POP125     -0.0879
 16748 H101        -3.6460     3.9580    -5.4490 H       131  POP125      0.0569
 16749 C211        -4.5150     4.2720    -3.4140 C.3     131  POP125     -0.0348
 16750 H11R        -5.0950     5.1090    -3.1140 H       131  POP125      0.0307
 16751 H11S        -3.4270     4.3160    -3.1270 H       131  POP125      0.0307
 16752 C212        -5.1940     2.9690    -3.0600 C.3     131  POP125     -0.0496
 16753 H12R        -4.6640     2.0810    -3.5110 H       131  POP125      0.0268
 16754 H12S        -6.1690     2.9140    -3.4110 H       131  POP125      0.0268
 16755 C213        -5.0660     2.7690    -1.4910 C.3     131  POP125     -0.0528
 16756 H13R        -5.5840     1.8200    -1.2970 H       131  POP125      0.0265
 16757 H13S        -5.7800     3.4510    -0.9560 H       131  POP125      0.0265
 16758 C214        -3.6650     2.7090    -0.9220 C.3     131  POP125     -0.0530
 16759 H14R        -3.2070     3.6230    -1.1690 H       131  POP125      0.0265
 16760 H14S        -3.0170     1.9620    -1.4140 H       131  POP125      0.0265
 16761 C215        -3.6700     2.4000     0.5710 C.3     131  POP125     -0.0531
 16762 H15R        -3.6890     1.3400     0.7570 H       131  POP125      0.0265
 16763 H15S        -4.5580     2.9120     0.9380 H       131  POP125      0.0265
 16764 C216        -2.4420     2.8110     1.3760 C.3     131  POP125     -0.0533
 16765 H16R        -1.4840     2.7530     0.8170 H       131  POP125      0.0265
 16766 H16S        -2.3850     2.1920     2.3330 H       131  POP125      0.0265
 16767 C217        -2.5850     4.2950     1.7640 C.3     131  POP125     -0.0559
 16768 H17R        -3.5020     4.3750     2.4370 H       131  POP125      0.0263
 16769 H17S        -2.7870     4.8580     0.8320 H       131  POP125      0.0263
 16770 C218        -1.3120     4.8500     2.4470 C.3     131  POP125     -0.0653
 16771 H18R        -1.0280     4.2840     3.3500 H       131  POP125      0.0230
 16772 H18S        -1.4040     5.9920     2.5910 H       131  POP125      0.0230
 16773 H18T        -0.4830     4.7850     1.6820 H       131  POP125      0.0230
 16774 C33        -15.6270    13.2380    -9.3810 C.3     131  POP125     -0.0441
 16775 H3X        -16.1350    13.9630   -10.0730 H       131  POP125      0.0270
 16776 H3Y        -14.5780    13.5420    -9.3690 H       131  POP125      0.0270
 16777 C34        -16.1400    13.4520    -7.9500 C.3     131  POP125     -0.0526
 16778 H4X        -15.5400    12.9510    -7.2330 H       131  POP125      0.0265
 16779 H4Y        -17.2710    13.0630    -7.8390 H       131  POP125      0.0265
 16780 C35        -16.1340    14.9420    -7.7080 C.3     131  POP125     -0.0530
 16781 H5X        -16.8440    15.4530    -8.4430 H       131  POP125      0.0265
 16782 H5Y        -15.1030    15.2650    -7.8570 H       131  POP125      0.0265
 16783 C36        -16.5210    15.1920    -6.2740 C.3     131  POP125     -0.0531
 16784 H6X        -15.8530    14.6780    -5.6140 H       131  POP125      0.0265
 16785 H6Y        -17.5310    14.8790    -6.0280 H       131  POP125      0.0265
 16786 C37        -16.3490    16.6930    -5.8710 C.3     131  POP125     -0.0531
 16787 H7X        -17.2100    17.2210    -6.3430 H       131  POP125      0.0265
 16788 H7Y        -15.4010    17.1460    -6.3700 H       131  POP125      0.0265
 16789 C38        -16.3900    16.9290    -4.3350 C.3     131  POP125     -0.0531
 16790 H8X        -15.4830    16.5190    -3.8480 H       131  POP125      0.0265
 16791 H8Y        -17.1440    16.2800    -3.8670 H       131  POP125      0.0265
 16792 C39        -16.3020    18.3930    -4.0000 C.3     131  POP125     -0.0531
 16793 H9X        -17.2470    18.9200    -4.0800 H       131  POP125      0.0265
 16794 H9Y        -15.5340    18.9290    -4.6060 H       131  POP125      0.0265
 16795 C310       -15.6580    18.6360    -2.6240 C.3     131  POP125     -0.0531
 16796 H10X       -15.5320    19.6980    -2.3940 H       131  POP125      0.0265
 16797 H10Y       -14.6570    18.1840    -2.6430 H       131  POP125      0.0265
 16798 C311       -16.4000    18.0530    -1.4410 C.3     131  POP125     -0.0531
 16799 H11X       -15.6370    18.2800    -0.6940 H       131  POP125      0.0265
 16800 H11Y       -16.4480    16.9330    -1.6860 H       131  POP125      0.0265
 16801 C312       -17.7490    18.6360    -1.0590 C.3     131  POP125     -0.0531
 16802 H12X       -18.6170    18.5920    -1.7620 H       131  POP125      0.0265
 16803 H12Y       -17.5340    19.7190    -0.9050 H       131  POP125      0.0265
 16804 C313       -18.1840    18.1790     0.3350 C.3     131  POP125     -0.0531
 16805 H13X       -18.9650    18.9080     0.7020 H       131  POP125      0.0265
 16806 H13Y       -17.3220    18.3520     0.9390 H       131  POP125      0.0265
 16807 C314       -18.7130    16.6450     0.3280 C.3     131  POP125     -0.0533
 16808 H14X       -17.8630    16.0630     0.0020 H       131  POP125      0.0265
 16809 H14Y       -19.4920    16.4170    -0.4200 H       131  POP125      0.0265
 16810 C315       -19.3110    16.0650     1.6490 C.3     131  POP125     -0.0559
 16811 H15X       -20.2140    16.6810     1.9110 H       131  POP125      0.0263
 16812 H15Y       -18.5800    16.0850     2.4950 H       131  POP125      0.0263
 16813 C316       -19.8170    14.5970     1.4390 C.3     131  POP125     -0.0653
 16814 H16X       -20.7400    14.5240     0.7830 H       131  POP125      0.0230
 16815 H16Y       -19.9740    14.1670     2.4480 H       131  POP125      0.0230
 16816 H16Z       -19.0870    13.9030     0.9870 H       131  POP125      0.0230
 16817 N            6.1210    -1.0810    -7.6030 N.3     132  POP126      0.2385
 16818 C12          5.5940    -2.4270    -7.1500 C.3     132  POP126     -0.0064
 16819 H12A         4.4720    -2.4420    -6.9460 H       132  POP126      0.0838
 16820 H12B         6.0580    -2.7440    -6.1880 H       132  POP126      0.0838
 16821 C13          7.6670    -1.1890    -7.5590 C.3     132  POP126     -0.0417
 16822 H13A         8.0940    -1.5700    -6.5940 H       132  POP126      0.0778
 16823 H13B         7.9690    -1.9370    -8.2670 H       132  POP126      0.0778
 16824 H13C         8.1730    -0.2140    -7.7760 H       132  POP126      0.0778
 16825 C14          5.7840    -0.8970    -9.0240 C.3     132  POP126     -0.0417
 16826 H14A         6.2150    -1.7220    -9.5090 H       132  POP126      0.0778
 16827 H14B         4.7330    -0.8890    -9.2090 H       132  POP126      0.0778
 16828 H14C         6.3000    -0.0160    -9.3470 H       132  POP126      0.0778
 16829 C15          5.7100     0.0150    -6.6470 C.3     132  POP126     -0.0417
 16830 H15A         6.1080     0.9010    -7.0830 H       132  POP126      0.0778
 16831 H15B         6.0670    -0.2360    -5.7470 H       132  POP126      0.0778
 16832 H15C         4.6430     0.1430    -6.6290 H       132  POP126      0.0778
 16833 C11          5.7720    -3.6050    -8.1160 C.3     132  POP126      0.0954
 16834 H11A         5.0710    -3.4720    -9.0150 H       132  POP126      0.0618
 16835 H11B         5.3310    -4.5060    -7.6860 H       132  POP126      0.0618
 16836 P            7.4460    -4.5190   -10.0350 P.3     132  POP126      0.2645
 16837 O13          8.9060    -4.8500   -10.1430 O.co2   132  POP126     -0.5105
 16838 O14          7.0440    -3.4410   -11.0100 O.co2   132  POP126     -0.5105
 16839 O12          7.1010    -3.9830    -8.5780 O.3     132  POP126     -0.3154
 16840 O11          6.4960    -5.7710   -10.3320 O.3     132  POP126     -0.3181
 16841 C1           6.4420    -6.8400    -9.3800 C.3     132  POP126      0.0845
 16842 HA           5.5260    -7.4980    -9.5630 H       132  POP126      0.0591
 16843 HB           6.4600    -6.4990    -8.2420 H       132  POP126      0.0591
 16844 C2           7.5870    -7.8580    -9.6480 C.3     132  POP126      0.1155
 16845 HS           8.5100    -7.2070    -9.5450 H       132  POP126      0.0649
 16846 O21          7.3750    -8.3940   -10.9400 O.3     132  POP126     -0.3072
 16847 C21          8.3930    -8.9850   -11.5050 C.2     132  POP126      0.2626
 16848 O22          9.4780    -9.1770   -11.0570 O.2     132  POP126     -0.2650
 16849 C22          7.8470    -9.6270   -12.7640 C.3     132  POP126      0.0332
 16850 H2R          8.4220    -9.1690   -13.6070 H       132  POP126      0.0366
 16851 H2S          6.7740    -9.3740   -12.8860 H       132  POP126      0.0366
 16852 C3           7.7110    -8.9670    -8.6050 C.3     132  POP126      0.0860
 16853 HX           8.4170    -9.7910    -8.9000 H       132  POP126      0.0593
 16854 HY           6.6830    -9.5380    -8.5000 H       132  POP126      0.0593
 16855 O31          7.9600    -8.3250    -7.3420 O.3     132  POP126     -0.3125
 16856 C31          8.9060    -8.9520    -6.6160 C.2     132  POP126      0.2622
 16857 O32          9.6740    -9.8460    -6.9680 O.2     132  POP126     -0.2650
 16858 C32          9.0710    -8.2400    -5.2030 C.3     132  POP126      0.0332
 16859 H2X          7.9640    -7.9680    -4.9140 H       132  POP126      0.0366
 16860 H2Y          9.6240    -7.3120    -5.2950 H       132  POP126      0.0366
 16861 C23          8.0650   -11.1820   -12.8920 C.3     132  POP126     -0.0441
 16862 H3R          9.1700   -11.3250   -12.6380 H       132  POP126      0.0270
 16863 H3S          7.7450   -11.5230   -13.9290 H       132  POP126      0.0270
 16864 C24          7.1710   -12.1920   -11.9880 C.3     132  POP126     -0.0526
 16865 H4R          7.7010   -12.1580   -11.0460 H       132  POP126      0.0265
 16866 H4S          7.3310   -13.2290   -12.3750 H       132  POP126      0.0265
 16867 C25          5.6910   -12.0190   -11.8310 C.3     132  POP126     -0.0530
 16868 H5R          5.1960   -12.4120   -12.8110 H       132  POP126      0.0265
 16869 H5S          5.4180   -10.8870   -11.7540 H       132  POP126      0.0265
 16870 C26          5.1410   -12.7160   -10.5840 C.3     132  POP126     -0.0528
 16871 H6R          5.5440   -13.7650   -10.6430 H       132  POP126      0.0265
 16872 H6S          4.0570   -12.8690   -10.6550 H       132  POP126      0.0265
 16873 C27          5.3990   -11.9240    -9.2830 C.3     132  POP126     -0.0496
 16874 H7R          4.7280   -11.0770    -9.4090 H       132  POP126      0.0268
 16875 H7S          6.4000   -11.6430    -9.2420 H       132  POP126      0.0268
 16876 C28          4.9390   -12.6130    -8.0110 C.3     132  POP126     -0.0348
 16877 H8R          5.4370   -13.5460    -7.9160 H       132  POP126      0.0307
 16878 H8S          3.7710   -12.8580    -8.0100 H       132  POP126      0.0307
 16879 C29          5.2950   -11.6030    -6.8970 C.2     132  POP126     -0.0879
 16880 H91          4.6440   -10.7330    -6.6970 H       132  POP126      0.0569
 16881 C210         6.4340   -11.6530    -6.2030 C.2     132  POP126     -0.0879
 16882 H101         6.5910   -10.8920    -5.3600 H       132  POP126      0.0569
 16883 C211         7.5730   -12.6830    -6.4960 C.3     132  POP126     -0.0348
 16884 H11R         8.4240   -12.1760    -6.9290 H       132  POP126      0.0307
 16885 H11S         7.2510   -13.4930    -7.1310 H       132  POP126      0.0307
 16886 C212         7.9940   -13.2410    -5.1700 C.3     132  POP126     -0.0496
 16887 H12R         7.1160   -13.5730    -4.6280 H       132  POP126      0.0268
 16888 H12S         8.3310   -12.4020    -4.4920 H       132  POP126      0.0268
 16889 C213         9.0100   -14.4400    -4.9910 C.3     132  POP126     -0.0528
 16890 H13R        10.0650   -14.0670    -5.3210 H       132  POP126      0.0265
 16891 H13S         8.7320   -15.2390    -5.5860 H       132  POP126      0.0265
 16892 C214         9.1840   -14.8510    -3.5360 C.3     132  POP126     -0.0530
 16893 H14R         8.3280   -15.4600    -3.2030 H       132  POP126      0.0265
 16894 H14S         9.4300   -13.9330    -2.9290 H       132  POP126      0.0265
 16895 C215        10.4580   -15.7200    -3.3190 C.3     132  POP126     -0.0531
 16896 H15R        11.3930   -15.1660    -3.5670 H       132  POP126      0.0265
 16897 H15S        10.4110   -16.6800    -3.8360 H       132  POP126      0.0265
 16898 C216        10.7450   -15.9200    -1.8160 C.3     132  POP126     -0.0533
 16899 H16R        10.5780   -14.9030    -1.3140 H       132  POP126      0.0265
 16900 H16S        11.8730   -15.9840    -1.7440 H       132  POP126      0.0265
 16901 C217        10.1100   -17.0950    -1.1700 C.3     132  POP126     -0.0559
 16902 H17R        10.5200   -18.0550    -1.5760 H       132  POP126      0.0263
 16903 H17S         8.9830   -17.1270    -1.3620 H       132  POP126      0.0263
 16904 C218        10.4470   -17.1400     0.2930 C.3     132  POP126     -0.0653
 16905 H18R        10.0380   -18.0000     0.8850 H       132  POP126      0.0230
 16906 H18S         9.8720   -16.2990     0.6940 H       132  POP126      0.0230
 16907 H18T        11.5360   -16.8810     0.4600 H       132  POP126      0.0230
 16908 C33          9.7000    -9.1250    -4.1470 C.3     132  POP126     -0.0441
 16909 H3X         10.7850    -8.9600    -4.2650 H       132  POP126      0.0270
 16910 H3Y          9.4880   -10.2370    -4.3590 H       132  POP126      0.0270
 16911 C34          9.3390    -8.8810    -2.7100 C.3     132  POP126     -0.0526
 16912 H4X          9.9490    -9.5290    -2.1220 H       132  POP126      0.0265
 16913 H4Y          8.3880    -9.3280    -2.4890 H       132  POP126      0.0265
 16914 C35          9.4640    -7.4590    -2.1320 C.3     132  POP126     -0.0530
 16915 H5X          8.7120    -6.8180    -2.5940 H       132  POP126      0.0265
 16916 H5Y         10.4180    -7.1220    -2.5190 H       132  POP126      0.0265
 16917 C36          9.5050    -7.2990    -0.6570 C.3     132  POP126     -0.0531
 16918 H6X         10.0440    -6.3590    -0.2950 H       132  POP126      0.0265
 16919 H6Y         10.1640    -8.0970    -0.4760 H       132  POP126      0.0265
 16920 C37          8.1510    -7.3960     0.0490 C.3     132  POP126     -0.0531
 16921 H7X          7.6850    -8.3930    -0.2540 H       132  POP126      0.0265
 16922 H7Y          7.4470    -6.5700    -0.1710 H       132  POP126      0.0265
 16923 C38          8.2410    -7.3570     1.5760 C.3     132  POP126     -0.0531
 16924 H8X          8.9140    -8.0810     2.0080 H       132  POP126      0.0265
 16925 H8Y          7.2500    -7.5460     1.9600 H       132  POP126      0.0265
 16926 C39          8.7150    -6.0140     2.1210 C.3     132  POP126     -0.0531
 16927 H9X          8.1750    -5.1680     1.7210 H       132  POP126      0.0265
 16928 H9Y          9.8190    -5.9340     1.9850 H       132  POP126      0.0265
 16929 C310         8.6130    -5.9040     3.6270 C.3     132  POP126     -0.0531
 16930 H10X         9.1260    -6.7050     4.1110 H       132  POP126      0.0265
 16931 H10Y         7.6390    -6.1440     4.0040 H       132  POP126      0.0265
 16932 C311         9.1460    -4.5460     4.1230 C.3     132  POP126     -0.0531
 16933 H11X         8.8270    -4.5260     5.1540 H       132  POP126      0.0265
 16934 H11Y         8.6470    -3.6750     3.6730 H       132  POP126      0.0265
 16935 C312        10.6580    -4.3780     4.0630 C.3     132  POP126     -0.0531
 16936 H12X        10.8310    -4.3220     2.9400 H       132  POP126      0.0265
 16937 H12Y        11.0740    -5.3110     4.4780 H       132  POP126      0.0265
 16938 C313        11.2040    -3.1660     4.7870 C.3     132  POP126     -0.0531
 16939 H13X        10.7850    -3.2910     5.8100 H       132  POP126      0.0265
 16940 H13Y        10.8630    -2.2660     4.2350 H       132  POP126      0.0265
 16941 C314        12.7150    -3.0710     5.0240 C.3     132  POP126     -0.0533
 16942 H14X        13.1240    -4.0920     5.0110 H       132  POP126      0.0265
 16943 H14Y        12.9360    -2.6330     5.9470 H       132  POP126      0.0265
 16944 C315        13.5210    -2.3170     3.9180 C.3     132  POP126     -0.0559
 16945 H15X        14.5380    -2.2620     4.3480 H       132  POP126      0.0263
 16946 H15Y        13.1640    -1.2420     3.8040 H       132  POP126      0.0263
 16947 C316        13.5640    -3.0340     2.4960 C.3     132  POP126     -0.0653
 16948 H16X        14.3940    -2.6970     1.9160 H       132  POP126      0.0230
 16949 H16Y        12.5400    -2.8430     1.9650 H       132  POP126      0.0230
 16950 H16Z        13.7600    -4.0850     2.5400 H       132  POP126      0.0230
 16951 N           21.6720    -5.7510   -15.3730 N.3     133  POP127      0.2385
 16952 C12         21.4190    -4.8070   -14.1240 C.3     133  POP127     -0.0064
 16953 H12A        22.1760    -5.1860   -13.4440 H       133  POP127      0.0838
 16954 H12B        20.3940    -4.9030   -13.7510 H       133  POP127      0.0838
 16955 C13         21.0970    -5.0420   -16.5620 C.3     133  POP127     -0.0417
 16956 H13A        21.2850    -5.6330   -17.3940 H       133  POP127      0.0778
 16957 H13B        19.9890    -4.8540   -16.3580 H       133  POP127      0.0778
 16958 H13C        21.6080    -4.1400   -16.6780 H       133  POP127      0.0778
 16959 C14         23.1050    -6.0060   -15.5190 C.3     133  POP127     -0.0417
 16960 H14A        23.6840    -5.1100   -15.6250 H       133  POP127      0.0778
 16961 H14B        23.5380    -6.5870   -14.7440 H       133  POP127      0.0778
 16962 H14C        23.3320    -6.5810   -16.5130 H       133  POP127      0.0778
 16963 C15         21.0180    -7.0090   -15.0290 C.3     133  POP127     -0.0417
 16964 H15A        19.9720    -6.8920   -14.8750 H       133  POP127      0.0778
 16965 H15B        21.3340    -7.4540   -14.1220 H       133  POP127      0.0778
 16966 H15C        21.1360    -7.7260   -15.8060 H       133  POP127      0.0778
 16967 C11         21.7600    -3.3260   -14.4130 C.3     133  POP127      0.0954
 16968 H11A        22.6710    -3.1510   -15.0900 H       133  POP127      0.0618
 16969 H11B        21.8830    -2.8710   -13.4640 H       133  POP127      0.0618
 16970 P           19.2620    -2.4890   -14.4820 P.3     133  POP127      0.2645
 16971 O13         18.6570    -3.7710   -14.2730 O.co2   133  POP127     -0.5105
 16972 O14         18.4580    -1.5520   -15.2930 O.co2   133  POP127     -0.5105
 16973 O12         20.6160    -2.7600   -15.1660 O.3     133  POP127     -0.3154
 16974 O11         19.6380    -1.7990   -13.1550 O.3     133  POP127     -0.3181
 16975 C1          18.6440    -1.7720   -12.1910 C.3     133  POP127      0.0845
 16976 HA          19.2140    -1.5610   -11.2460 H       133  POP127      0.0591
 16977 HB          17.9500    -2.6390   -12.1730 H       133  POP127      0.0591
 16978 C2          17.8120    -0.4800   -12.2610 C.3     133  POP127      0.1155
 16979 HS          16.9260    -0.7850   -13.0020 H       133  POP127      0.0649
 16980 O21         18.6030     0.6180   -12.7650 O.3     133  POP127     -0.3072
 16981 C21         17.8260     1.5130   -13.3750 C.2     133  POP127      0.2626
 16982 O22         16.6010     1.4740   -13.4400 O.2     133  POP127     -0.2650
 16983 C22         18.5500     2.6720   -13.9740 C.3     133  POP127      0.0332
 16984 H2R         17.6810     3.1840   -14.4820 H       133  POP127      0.0366
 16985 H2S         19.2000     2.2300   -14.7470 H       133  POP127      0.0366
 16986 C3          17.1600    -0.1250   -10.9330 C.3     133  POP127      0.0860
 16987 HX          16.2770    -0.7780   -10.7830 H       133  POP127      0.0593
 16988 HY          16.6350     0.8520   -11.0340 H       133  POP127      0.0593
 16989 O31         18.0190    -0.0940    -9.7720 O.3     133  POP127     -0.3125
 16990 C31         17.5000     0.3800    -8.5930 C.2     133  POP127      0.2622
 16991 O32         16.4160     0.9040    -8.5250 O.2     133  POP127     -0.2650
 16992 C32         18.4050    -0.0110    -7.4240 C.3     133  POP127      0.0332
 16993 H2X         17.8010     0.2900    -6.4430 H       133  POP127      0.0366
 16994 H2Y         19.3630     0.4930    -7.5460 H       133  POP127      0.0366
 16995 C23         19.3920     3.4250   -13.0510 C.3     133  POP127     -0.0441
 16996 H3R         19.7460     4.3960   -13.4820 H       133  POP127      0.0270
 16997 H3S         20.3590     2.8560   -12.8810 H       133  POP127      0.0270
 16998 C24         18.7890     3.7040   -11.6700 C.3     133  POP127     -0.0526
 16999 H4R         18.4700     2.8200   -11.1240 H       133  POP127      0.0265
 17000 H4S         17.8490     4.3860   -11.7400 H       133  POP127      0.0265
 17001 C25         19.7660     4.4650   -10.7570 C.3     133  POP127     -0.0530
 17002 H5R         20.4710     5.2530   -11.2500 H       133  POP127      0.0265
 17003 H5S         20.5820     3.7140   -10.4510 H       133  POP127      0.0265
 17004 C26         19.1930     4.9570    -9.4400 C.3     133  POP127     -0.0528
 17005 H6R         18.6190     5.9450    -9.6800 H       133  POP127      0.0265
 17006 H6S         19.9390     5.2810    -8.6950 H       133  POP127      0.0265
 17007 C27         18.2980     3.9590    -8.6600 C.3     133  POP127     -0.0496
 17008 H7R         18.9860     3.1340    -8.4530 H       133  POP127      0.0268
 17009 H7S         17.4950     3.4960    -9.3020 H       133  POP127      0.0268
 17010 C28         17.8790     4.6080    -7.2820 C.3     133  POP127     -0.0348
 17011 H8R         17.4150     5.5970    -7.4810 H       133  POP127      0.0307
 17012 H8S         18.8130     4.6470    -6.7220 H       133  POP127      0.0307
 17013 C29         16.7920     3.8160    -6.7050 C.2     133  POP127     -0.0879
 17014 H91         16.1380     3.3380    -7.4030 H       133  POP127      0.0569
 17015 C210        16.5380     3.6720    -5.3880 C.2     133  POP127     -0.0879
 17016 H101        15.7420     3.0710    -5.0470 H       133  POP127      0.0569
 17017 C211        17.3190     4.3840    -4.3270 C.3     133  POP127     -0.0348
 17018 H11R        18.3820     4.6780    -4.6660 H       133  POP127      0.0307
 17019 H11S        17.3280     3.7960    -3.3650 H       133  POP127      0.0307
 17020 C212        16.7420     5.8580    -3.9380 C.3     133  POP127     -0.0496
 17021 H12R        16.7010     6.4360    -4.8380 H       133  POP127      0.0268
 17022 H12S        17.3590     6.4840    -3.3220 H       133  POP127      0.0268
 17023 C213        15.3430     5.6850    -3.2180 C.3     133  POP127     -0.0528
 17024 H13R        14.8830     4.9100    -3.8670 H       133  POP127      0.0265
 17025 H13S        14.8000     6.6730    -3.2810 H       133  POP127      0.0265
 17026 C214        15.2610     5.2300    -1.6990 C.3     133  POP127     -0.0530
 17027 H14R        15.8050     5.9660    -1.0630 H       133  POP127      0.0265
 17028 H14S        15.6880     4.2090    -1.4570 H       133  POP127      0.0265
 17029 C215        13.8070     5.3130    -1.3420 C.3     133  POP127     -0.0531
 17030 H15R        13.2500     4.7230    -2.0790 H       133  POP127      0.0265
 17031 H15S        13.4410     6.3410    -1.5480 H       133  POP127      0.0265
 17032 C216        13.6470     4.7650     0.1470 C.3     133  POP127     -0.0533
 17033 H16R        14.6970     4.9660     0.7200 H       133  POP127      0.0265
 17034 H16S        13.5260     3.6900     0.3410 H       133  POP127      0.0265
 17035 C217        12.7200     5.5870     1.0430 C.3     133  POP127     -0.0559
 17036 H17R        12.8900     6.6450     0.9720 H       133  POP127      0.0263
 17037 H17S        12.9910     5.3480     2.0990 H       133  POP127      0.0263
 17038 C218        11.2590     5.1020     0.9350 C.3     133  POP127     -0.0653
 17039 H18R        11.1130     4.2710     1.6500 H       133  POP127      0.0230
 17040 H18S        10.9170     4.7920    -0.0910 H       133  POP127      0.0230
 17041 H18T        10.6430     5.9540     1.2880 H       133  POP127      0.0230
 17042 C33         18.7080    -1.5190    -7.5030 C.3     133  POP127     -0.0441
 17043 H3X         17.9460    -1.9580    -8.2710 H       133  POP127      0.0270
 17044 H3Y         18.7060    -1.9750    -6.5230 H       133  POP127      0.0270
 17045 C34         20.0940    -1.6330    -8.1170 C.3     133  POP127     -0.0526
 17046 H4X         20.7500    -1.0270    -7.4920 H       133  POP127      0.0265
 17047 H4Y         20.0910    -1.3460    -9.1330 H       133  POP127      0.0265
 17048 C35         20.5950    -3.0700    -8.0840 C.3     133  POP127     -0.0530
 17049 H5X         19.9320    -3.8110    -8.5560 H       133  POP127      0.0265
 17050 H5Y         20.7380    -3.3530    -7.0200 H       133  POP127      0.0265
 17051 C36         21.9170    -3.2990    -8.6690 C.3     133  POP127     -0.0531
 17052 H6X         22.6300    -2.6380    -8.2090 H       133  POP127      0.0265
 17053 H6Y         21.8660    -2.8950    -9.6930 H       133  POP127      0.0265
 17054 C37         22.2450    -4.7910    -8.8300 C.3     133  POP127     -0.0531
 17055 H7X         22.9870    -4.9790    -9.6780 H       133  POP127      0.0265
 17056 H7Y         21.3080    -5.3830    -9.0900 H       133  POP127      0.0265
 17057 C38         22.5880    -5.2370    -7.4390 C.3     133  POP127     -0.0531
 17058 H8X         21.7480    -4.9130    -6.7530 H       133  POP127      0.0265
 17059 H8Y         23.5320    -4.8330    -7.0720 H       133  POP127      0.0265
 17060 C39         22.5330    -6.7430    -7.2290 C.3     133  POP127     -0.0531
 17061 H9X         23.3520    -7.1920    -7.8220 H       133  POP127      0.0265
 17062 H9Y         21.5830    -7.0130    -7.7390 H       133  POP127      0.0265
 17063 C310        22.5280    -7.1590    -5.7420 C.3     133  POP127     -0.0531
 17064 H10X        22.3540    -8.2340    -5.5720 H       133  POP127      0.0265
 17065 H10Y        21.6590    -6.7790    -5.1600 H       133  POP127      0.0265
 17066 C311        23.7830    -6.7950    -4.9380 C.3     133  POP127     -0.0531
 17067 H11X        23.8960    -5.6870    -4.9820 H       133  POP127      0.0265
 17068 H11Y        24.5670    -7.2230    -5.5350 H       133  POP127      0.0265
 17069 C312        23.7370    -7.3200    -3.4380 C.3     133  POP127     -0.0531
 17070 H12X        22.7680    -7.1210    -2.9390 H       133  POP127      0.0265
 17071 H12Y        24.2960    -6.5240    -2.7670 H       133  POP127      0.0265
 17072 C313        24.3710    -8.6430    -3.2390 C.3     133  POP127     -0.0531
 17073 H13X        24.0350    -9.4360    -3.9180 H       133  POP127      0.0265
 17074 H13Y        24.0040    -8.8400    -2.2220 H       133  POP127      0.0265
 17075 C314        25.9110    -8.5680    -3.0810 C.3     133  POP127     -0.0533
 17076 H14X        26.1440    -8.0510    -2.1130 H       133  POP127      0.0265
 17077 H14Y        26.2430    -7.8060    -3.7760 H       133  POP127      0.0265
 17078 C315        26.6470    -9.9320    -3.1200 C.3     133  POP127     -0.0559
 17079 H15X        27.7300    -9.7520    -2.9570 H       133  POP127      0.0263
 17080 H15Y        26.7300   -10.4250    -4.1780 H       133  POP127      0.0263
 17081 C316        26.1210   -10.9020    -2.1390 C.3     133  POP127     -0.0653
 17082 H16X        26.2370   -10.4600    -1.1100 H       133  POP127      0.0230
 17083 H16Y        26.6450   -11.8530    -2.2170 H       133  POP127      0.0230
 17084 H16Z        25.0290   -11.0430    -2.1840 H       133  POP127      0.0230
 17085 N          -22.2630    17.9840   -27.0900 N.3     134  POP128      0.2385
 17086 C12        -23.2570    17.0450   -26.4390 C.3     134  POP128     -0.0064
 17087 H12A       -22.8180    15.9400   -26.5590 H       134  POP128      0.0838
 17088 H12B       -24.1980    17.0550   -27.0340 H       134  POP128      0.0838
 17089 C13        -21.0660    18.0970   -26.2210 C.3     134  POP128     -0.0417
 17090 H13A       -20.4620    17.1650   -26.1620 H       134  POP128      0.0778
 17091 H13B       -20.3830    18.7850   -26.6350 H       134  POP128      0.0778
 17092 H13C       -21.2960    18.5680   -25.2540 H       134  POP128      0.0778
 17093 C14        -21.9410    17.4430   -28.4660 C.3     134  POP128     -0.0417
 17094 H14A       -21.0650    17.8920   -28.8770 H       134  POP128      0.0778
 17095 H14B       -21.7750    16.3610   -28.3630 H       134  POP128      0.0778
 17096 H14C       -22.7420    17.6590   -29.1140 H       134  POP128      0.0778
 17097 C15        -22.9190    19.2870   -27.2560 C.3     134  POP128     -0.0417
 17098 H15A       -23.7100    19.2450   -27.9550 H       134  POP128      0.0778
 17099 H15B       -22.2410    20.0560   -27.4880 H       134  POP128      0.0778
 17100 H15C       -23.3770    19.5240   -26.2970 H       134  POP128      0.0778
 17101 C11        -23.5650    17.2330   -24.9270 C.3     134  POP128      0.0954
 17102 H11A       -22.6570    17.4450   -24.3710 H       134  POP128      0.0618
 17103 H11B       -23.9800    16.2170   -24.5290 H       134  POP128      0.0618
 17104 P          -25.9510    18.1720   -24.7950 P.3     134  POP128      0.2645
 17105 O13        -26.3690    17.0640   -25.7210 O.co2   134  POP128     -0.5105
 17106 O14        -26.5030    19.5110   -25.1470 O.co2   134  POP128     -0.5105
 17107 O12        -24.3630    18.3360   -24.6680 O.3     134  POP128     -0.3154
 17108 O11        -26.4650    17.7540   -23.3770 O.3     134  POP128     -0.3181
 17109 C1         -26.0200    18.3950   -22.2080 C.3     134  POP128      0.0845
 17110 HA         -26.9170    18.6760   -21.6510 H       134  POP128      0.0591
 17111 HB         -25.4310    19.3150   -22.4590 H       134  POP128      0.0591
 17112 C2         -25.1060    17.5150   -21.3880 C.3     134  POP128      0.1155
 17113 HS         -24.7450    16.6560   -21.9400 H       134  POP128      0.0649
 17114 O21        -25.7710    17.1820   -20.1710 O.3     134  POP128     -0.3072
 17115 C21        -25.5450    15.9460   -19.6110 C.2     134  POP128      0.2626
 17116 O22        -25.0550    14.9890   -20.2020 O.2     134  POP128     -0.2650
 17117 C22        -25.8810    15.8420   -18.0660 C.3     134  POP128      0.0332
 17118 H2R        -26.9870    15.6700   -17.8710 H       134  POP128      0.0366
 17119 H2S        -25.6870    16.8390   -17.6560 H       134  POP128      0.0366
 17120 C3         -23.7650    18.2600   -20.9390 C.3     134  POP128      0.0860
 17121 HX         -23.4500    18.6010   -21.9550 H       134  POP128      0.0593
 17122 HY         -23.0950    17.3980   -20.5560 H       134  POP128      0.0593
 17123 O31        -24.0030    19.4080   -20.0460 O.3     134  POP128     -0.3125
 17124 C31        -23.3840    20.5150   -20.1770 C.2     134  POP128      0.2622
 17125 O32        -22.5860    20.8250   -21.0590 O.2     134  POP128     -0.2650
 17126 C32        -23.6620    21.4800   -18.9630 C.3     134  POP128      0.0332
 17127 H2X        -23.9280    22.4910   -19.4510 H       134  POP128      0.0366
 17128 H2Y        -22.6430    21.6440   -18.4750 H       134  POP128      0.0366
 17129 C23        -25.0680    14.7560   -17.3680 C.3     134  POP128     -0.0441
 17130 H3R        -23.9220    14.9270   -17.5650 H       134  POP128      0.0270
 17131 H3S        -25.3730    13.7080   -17.7340 H       134  POP128      0.0270
 17132 C24        -25.3750    14.8720   -15.9050 C.3     134  POP128     -0.0526
 17133 H4R        -26.4490    14.5050   -15.6760 H       134  POP128      0.0265
 17134 H4S        -25.2720    15.9240   -15.5050 H       134  POP128      0.0265
 17135 C25        -24.4970    13.9190   -15.0430 C.3     134  POP128     -0.0530
 17136 H5R        -23.4290    14.2360   -15.0480 H       134  POP128      0.0265
 17137 H5S        -24.4650    12.9220   -15.5170 H       134  POP128      0.0265
 17138 C26        -25.0820    13.9440   -13.6710 C.3     134  POP128     -0.0528
 17139 H6R        -25.9890    13.3000   -13.6460 H       134  POP128      0.0265
 17140 H6S        -25.2860    15.0880   -13.3430 H       134  POP128      0.0265
 17141 C27        -24.0770    13.2410   -12.7660 C.3     134  POP128     -0.0496
 17142 H7R        -23.1180    13.8900   -12.9190 H       134  POP128      0.0268
 17143 H7S        -23.8490    12.2490   -13.0760 H       134  POP128      0.0268
 17144 C28        -24.3310    13.3580   -11.2690 C.3     134  POP128     -0.0348
 17145 H8R        -24.2310    14.4390   -11.0450 H       134  POP128      0.0307
 17146 H8S        -23.5390    12.8270   -10.7230 H       134  POP128      0.0307
 17147 C29        -25.7310    12.8560   -10.8310 C.2     134  POP128     -0.0879
 17148 H91        -26.4670    13.0950   -11.5550 H       134  POP128      0.0569
 17149 C210       -26.0930    12.1960    -9.7240 C.2     134  POP128     -0.0879
 17150 H101       -27.1140    12.0170    -9.5440 H       134  POP128      0.0569
 17151 C211       -25.0950    11.7690    -8.6420 C.3     134  POP128     -0.0348
 17152 H11R       -24.3270    12.5690    -8.5780 H       134  POP128      0.0307
 17153 H11S       -24.5480    10.7730    -8.7700 H       134  POP128      0.0307
 17154 C212       -25.7790    11.5600    -7.2550 C.3     134  POP128     -0.0496
 17155 H12R       -24.8920    11.4510    -6.5720 H       134  POP128      0.0268
 17156 H12S       -26.4660    10.7390    -7.2130 H       134  POP128      0.0268
 17157 C213       -26.6970    12.7810    -6.9040 C.3     134  POP128     -0.0528
 17158 H13R       -27.6950    12.8150    -7.3690 H       134  POP128      0.0265
 17159 H13S       -26.1200    13.6020    -7.2410 H       134  POP128      0.0265
 17160 C214       -27.0730    12.6790    -5.3840 C.3     134  POP128     -0.0530
 17161 H14R       -27.4560    11.6460    -5.2400 H       134  POP128      0.0265
 17162 H14S       -27.8410    13.3400    -4.9380 H       134  POP128      0.0265
 17163 C215       -25.9460    12.8460    -4.4240 C.3     134  POP128     -0.0531
 17164 H15R       -25.3330    13.7930    -4.6670 H       134  POP128      0.0265
 17165 H15S       -25.1860    12.0490    -4.4700 H       134  POP128      0.0265
 17166 C216       -26.4680    12.8900    -2.9810 C.3     134  POP128     -0.0533
 17167 H16R       -27.4410    13.4770    -2.8930 H       134  POP128      0.0265
 17168 H16S       -25.7130    13.2320    -2.2410 H       134  POP128      0.0265
 17169 C217       -26.9400    11.5330    -2.3800 C.3     134  POP128     -0.0559
 17170 H17R       -26.0890    10.7930    -2.4590 H       134  POP128      0.0263
 17171 H17S       -27.7760    11.1670    -3.0440 H       134  POP128      0.0263
 17172 C218       -27.5860    11.6690    -1.0070 C.3     134  POP128     -0.0653
 17173 H18R       -28.3060    12.4880    -1.0010 H       134  POP128      0.0230
 17174 H18S       -26.8390    11.7220    -0.1670 H       134  POP128      0.0230
 17175 H18T       -28.1880    10.7270    -0.8890 H       134  POP128      0.0230
 17176 C33        -24.7860    21.0900   -18.0680 C.3     134  POP128     -0.0441
 17177 H3X        -24.5810    20.2270   -17.4500 H       134  POP128      0.0270
 17178 H3Y        -25.6370    20.8800   -18.7360 H       134  POP128      0.0270
 17179 C34        -25.2080    22.0780   -17.0290 C.3     134  POP128     -0.0526
 17180 H4X        -26.2350    21.6690   -16.8010 H       134  POP128      0.0265
 17181 H4Y        -25.5350    23.0900   -17.4420 H       134  POP128      0.0265
 17182 C35        -24.4000    22.2200   -15.7460 C.3     134  POP128     -0.0530
 17183 H5X        -25.0460    22.8500   -14.9550 H       134  POP128      0.0265
 17184 H5Y        -23.4470    22.7930   -15.7460 H       134  POP128      0.0265
 17185 C36        -24.3110    20.8770   -14.8530 C.3     134  POP128     -0.0531
 17186 H6X        -23.6570    20.0920   -15.2550 H       134  POP128      0.0265
 17187 H6Y        -25.3510    20.3570   -15.0230 H       134  POP128      0.0265
 17188 C37        -24.1620    20.9380   -13.2780 C.3     134  POP128     -0.0531
 17189 H7X        -23.2260    21.5860   -13.0970 H       134  POP128      0.0265
 17190 H7Y        -24.0420    19.9640   -12.7920 H       134  POP128      0.0265
 17191 C38        -25.3010    21.6700   -12.4780 C.3     134  POP128     -0.0531
 17192 H8X        -26.2050    21.0700   -12.6850 H       134  POP128      0.0265
 17193 H8Y        -25.4810    22.6530   -12.8410 H       134  POP128      0.0265
 17194 C39        -25.1120    21.7130   -10.9930 C.3     134  POP128     -0.0531
 17195 H9X        -24.0150    21.9210   -10.8710 H       134  POP128      0.0265
 17196 H9Y        -25.3410    20.7580   -10.4990 H       134  POP128      0.0265
 17197 C310       -25.8600    22.8430   -10.3600 C.3     134  POP128     -0.0531
 17198 H10X       -26.9730    22.6830   -10.3470 H       134  POP128      0.0265
 17199 H10Y       -25.6020    23.8230   -10.9240 H       134  POP128      0.0265
 17200 C311       -25.4440    23.0580    -8.9180 C.3     134  POP128     -0.0531
 17201 H11X       -25.8450    24.0120    -8.3510 H       134  POP128      0.0265
 17202 H11Y       -24.3370    23.2190    -8.9030 H       134  POP128      0.0265
 17203 C312       -25.6950    21.8160    -8.0980 C.3     134  POP128     -0.0531
 17204 H12X       -25.1490    20.8930    -8.4080 H       134  POP128      0.0265
 17205 H12Y       -26.8080    21.6580    -8.0530 H       134  POP128      0.0265
 17206 C313       -25.0980    22.1610    -6.6800 C.3     134  POP128     -0.0531
 17207 H13X       -25.3690    23.1300    -6.3990 H       134  POP128      0.0265
 17208 H13Y       -23.9320    22.0180    -6.7900 H       134  POP128      0.0265
 17209 C314       -25.5410    21.1330    -5.5810 C.3     134  POP128     -0.0533
 17210 H14X       -26.2550    20.3400    -5.8350 H       134  POP128      0.0265
 17211 H14Y       -26.0540    21.8270    -4.8190 H       134  POP128      0.0265
 17212 C315       -24.3380    20.4360    -4.9110 C.3     134  POP128     -0.0559
 17213 H15X       -23.4840    21.2000    -4.9920 H       134  POP128      0.0263
 17214 H15Y       -23.9750    19.6130    -5.5170 H       134  POP128      0.0263
 17215 C316       -24.5810    20.0900    -3.3950 C.3     134  POP128     -0.0653
 17216 H16X       -25.1480    20.7750    -2.7390 H       134  POP128      0.0230
 17217 H16Y       -23.6520    19.9730    -2.8710 H       134  POP128      0.0230
 17218 H16Z       -25.2650    19.2650    -3.4590 H       134  POP128      0.0230
 17219 N           31.6580    11.9810   -22.2400 N.3     135  POP129      0.2385
 17220 C12         32.2530    12.4280   -20.9190 C.3     135  POP129     -0.0064
 17221 H12A        31.5490    13.1000   -20.3610 H       135  POP129      0.0838
 17222 H12B        33.0760    13.0450   -21.1430 H       135  POP129      0.0838
 17223 C13         31.1470    13.1640   -23.0810 C.3     135  POP129     -0.0417
 17224 H13A        30.3130    13.6970   -22.5000 H       135  POP129      0.0778
 17225 H13B        31.9090    13.8490   -23.1680 H       135  POP129      0.0778
 17226 H13C        30.6610    12.8930   -24.0310 H       135  POP129      0.0778
 17227 C14         32.8430    11.4200   -23.0010 C.3     135  POP129     -0.0417
 17228 H14A        33.6520    12.1910   -23.0730 H       135  POP129      0.0778
 17229 H14B        33.2860    10.5940   -22.5790 H       135  POP129      0.0778
 17230 H14C        32.5120    11.2720   -24.0190 H       135  POP129      0.0778
 17231 C15         30.6360    10.8650   -22.1680 C.3     135  POP129     -0.0417
 17232 H15A        31.0250    10.0480   -21.5140 H       135  POP129      0.0778
 17233 H15B        30.2470    10.6100   -23.1420 H       135  POP129      0.0778
 17234 H15C        29.7390    11.1600   -21.5610 H       135  POP129      0.0778
 17235 C11         32.7520    11.2470   -19.9670 C.3     135  POP129      0.0954
 17236 H11A        32.0940    10.3700   -20.0400 H       135  POP129      0.0618
 17237 H11B        32.8070    11.7230   -18.9090 H       135  POP129      0.0618
 17238 P           35.3300    11.8620   -20.2710 P.3     135  POP129      0.2645
 17239 O13         35.1820    13.0610   -21.1020 O.co2   135  POP129     -0.5105
 17240 O14         36.5600    11.0880   -20.4640 O.co2   135  POP129     -0.5105
 17241 O12         34.0840    10.9090   -20.3800 O.3     135  POP129     -0.3154
 17242 O11         35.2130    12.2460   -18.7690 O.3     135  POP129     -0.3181
 17243 C1          35.8430    13.3320   -18.0570 C.3     135  POP129      0.0845
 17244 HA          35.5730    14.3660   -18.4700 H       135  POP129      0.0591
 17245 HB          36.9070    13.1810   -18.1980 H       135  POP129      0.0591
 17246 C2          35.3310    13.3910   -16.6810 C.3     135  POP129      0.1155
 17247 HS          35.7860    14.3600   -16.2450 H       135  POP129      0.0649
 17248 O21         35.8600    12.2480   -16.0310 O.3     135  POP129     -0.3072
 17249 C21         36.8410    12.3660   -15.1170 C.2     135  POP129      0.2626
 17250 O22         37.2710    13.3990   -14.7170 O.2     135  POP129     -0.2650
 17251 C22         37.1610    10.9570   -14.7890 C.3     135  POP129      0.0332
 17252 H2R         37.6450    10.5580   -15.7480 H       135  POP129      0.0366
 17253 H2S         36.1730    10.4560   -14.6430 H       135  POP129      0.0366
 17254 C3          33.8260    13.5080   -16.4930 C.3     135  POP129      0.0860
 17255 HX          33.2810    12.6170   -16.9640 H       135  POP129      0.0593
 17256 HY          33.3680    14.3340   -17.0500 H       135  POP129      0.0593
 17257 O31         33.5200    13.7740   -15.0960 O.3     135  POP129     -0.3125
 17258 C31         33.2530    12.6960   -14.3020 C.2     135  POP129      0.2622
 17259 O32         33.1420    11.5840   -14.7550 O.2     135  POP129     -0.2650
 17260 C32         33.2210    13.1440   -12.8340 C.3     135  POP129      0.0332
 17261 H2X         32.6920    14.1490   -12.7430 H       135  POP129      0.0366
 17262 H2Y         34.1980    13.1860   -12.3810 H       135  POP129      0.0366
 17263 C23         38.1170    10.7390   -13.6480 C.3     135  POP129     -0.0441
 17264 H3R         38.7470    11.6180   -13.3200 H       135  POP129      0.0270
 17265 H3S         38.8660     9.9210   -13.7950 H       135  POP129      0.0270
 17266 C24         37.4120    10.4140   -12.2730 C.3     135  POP129     -0.0526
 17267 H4R         38.2090     9.9560   -11.5000 H       135  POP129      0.0265
 17268 H4S         36.7870     9.4810   -12.3870 H       135  POP129      0.0265
 17269 C25         36.7180    11.5230   -11.4900 C.3     135  POP129     -0.0530
 17270 H5R         36.0420    12.0680   -12.1620 H       135  POP129      0.0265
 17271 H5S         37.5840    12.2420   -11.3490 H       135  POP129      0.0265
 17272 C26         36.0340    11.1300   -10.2240 C.3     135  POP129     -0.0528
 17273 H6R         36.6970    10.4300    -9.6500 H       135  POP129      0.0265
 17274 H6S         35.0240    10.7680   -10.4050 H       135  POP129      0.0265
 17275 C27         35.9360    12.3330    -9.2400 C.3     135  POP129     -0.0496
 17276 H7R         35.0550    12.9230    -9.6380 H       135  POP129      0.0268
 17277 H7S         36.7880    13.0750    -9.4150 H       135  POP129      0.0268
 17278 C28         35.7340    11.9670    -7.7590 C.3     135  POP129     -0.0348
 17279 H8R         36.6570    11.4400    -7.5450 H       135  POP129      0.0307
 17280 H8S         34.9350    11.1440    -7.7610 H       135  POP129      0.0307
 17281 C29         35.6150    13.2100    -6.8330 C.2     135  POP129     -0.0879
 17282 H91         35.8740    14.1330    -7.4180 H       135  POP129      0.0569
 17283 C210        35.3540    13.2210    -5.5460 C.2     135  POP129     -0.0879
 17284 H101        35.0580    14.1240    -5.0210 H       135  POP129      0.0569
 17285 C211        35.0310    11.9560    -4.7910 C.3     135  POP129     -0.0348
 17286 H11R        35.7090    11.8380    -3.9710 H       135  POP129      0.0307
 17287 H11S        35.2250    11.0630    -5.4340 H       135  POP129      0.0307
 17288 C212        33.6270    11.9090    -4.1420 C.3     135  POP129     -0.0496
 17289 H12R        33.5970    11.0110    -3.5620 H       135  POP129      0.0268
 17290 H12S        32.8750    11.8180    -5.0340 H       135  POP129      0.0268
 17291 C213        33.3140    13.1070    -3.2480 C.3     135  POP129     -0.0528
 17292 H13R        33.4290    14.0890    -3.8260 H       135  POP129      0.0265
 17293 H13S        34.0010    13.1640    -2.4040 H       135  POP129      0.0265
 17294 C214        31.8490    13.1940    -2.7010 C.3     135  POP129     -0.0530
 17295 H14R        31.6300    12.3230    -1.9910 H       135  POP129      0.0265
 17296 H14S        31.0930    13.1530    -3.5430 H       135  POP129      0.0265
 17297 C215        31.5600    14.5500    -2.0480 C.3     135  POP129     -0.0531
 17298 H15R        31.8800    15.3100    -2.7490 H       135  POP129      0.0265
 17299 H15S        32.1740    14.6390    -1.1320 H       135  POP129      0.0265
 17300 C216        30.1670    14.8760    -1.8000 C.3     135  POP129     -0.0533
 17301 H16R        29.8410    14.4770    -0.8910 H       135  POP129      0.0265
 17302 H16S        29.4380    14.4920    -2.5670 H       135  POP129      0.0265
 17303 C217        29.8380    16.3750    -1.5910 C.3     135  POP129     -0.0559
 17304 H17R        30.0260    16.9170    -2.5750 H       135  POP129      0.0263
 17305 H17S        30.4850    16.8590    -0.8900 H       135  POP129      0.0263
 17306 C218        28.3960    16.7970    -1.2740 C.3     135  POP129     -0.0653
 17307 H18R        28.2410    17.9220    -1.2700 H       135  POP129      0.0230
 17308 H18S        28.0370    16.3350    -0.3150 H       135  POP129      0.0230
 17309 H18T        27.7290    16.2870    -2.0620 H       135  POP129      0.0230
 17310 C33         32.4650    12.0370   -11.9560 C.3     135  POP129     -0.0441
 17311 H3X         33.1450    11.1400   -11.9760 H       135  POP129      0.0270
 17312 H3Y         31.6210    11.5780   -12.4320 H       135  POP129      0.0270
 17313 C34         32.1340    12.4840   -10.4770 C.3     135  POP129     -0.0526
 17314 H4X         31.3270    13.3030   -10.5240 H       135  POP129      0.0265
 17315 H4Y         33.0450    12.9010    -9.9390 H       135  POP129      0.0265
 17316 C35         31.5070    11.3310    -9.6780 C.3     135  POP129     -0.0530
 17317 H5X         32.0980    10.4340    -9.8920 H       135  POP129      0.0265
 17318 H5Y         30.4690    11.2010   -10.0330 H       135  POP129      0.0265
 17319 C36         31.2660    11.6620    -8.1660 C.3     135  POP129     -0.0531
 17320 H6X         32.2170    11.9390    -7.7100 H       135  POP129      0.0265
 17321 H6Y         30.8730    10.7300    -7.5860 H       135  POP129      0.0265
 17322 C37         30.3070    12.8310    -8.0070 C.3     135  POP129     -0.0531
 17323 H7X         29.2860    12.7800    -8.5710 H       135  POP129      0.0265
 17324 H7Y         30.9100    13.6450    -8.4730 H       135  POP129      0.0265
 17325 C38         30.0930    13.1440    -6.5900 C.3     135  POP129     -0.0531
 17326 H8X         31.0620    13.0010    -6.0430 H       135  POP129      0.0265
 17327 H8Y         29.3490    12.5050    -6.1000 H       135  POP129      0.0265
 17328 C39         29.5650    14.6640    -6.4530 C.3     135  POP129     -0.0531
 17329 H9X         29.5060    14.9020    -5.3220 H       135  POP129      0.0265
 17330 H9Y         28.5800    14.6760    -6.8250 H       135  POP129      0.0265
 17331 C310        30.3720    15.8270    -7.1360 C.3     135  POP129     -0.0531
 17332 H10X        30.4750    15.6490    -8.2300 H       135  POP129      0.0265
 17333 H10Y        31.3580    15.8700    -6.7080 H       135  POP129      0.0265
 17334 C311        29.7060    17.2370    -6.8520 C.3     135  POP129     -0.0531
 17335 H11X        28.6170    17.1520    -7.1320 H       135  POP129      0.0265
 17336 H11Y        30.1730    18.0190    -7.4440 H       135  POP129      0.0265
 17337 C312        29.9630    17.6900    -5.4450 C.3     135  POP129     -0.0531
 17338 H12X        30.9870    17.3950    -5.1830 H       135  POP129      0.0265
 17339 H12Y        29.3690    17.0940    -4.7810 H       135  POP129      0.0265
 17340 C313        29.6650    19.1270    -5.1580 C.3     135  POP129     -0.0531
 17341 H13X        30.2860    19.7460    -5.9310 H       135  POP129      0.0265
 17342 H13Y        30.1230    19.2930    -4.1360 H       135  POP129      0.0265
 17343 C314        28.1760    19.4860    -5.2150 C.3     135  POP129     -0.0533
 17344 H14X        27.6520    18.6410    -4.6840 H       135  POP129      0.0265
 17345 H14Y        27.9040    19.4300    -6.2980 H       135  POP129      0.0265
 17346 C315        27.6800    20.8630    -4.7310 C.3     135  POP129     -0.0559
 17347 H15X        28.0340    21.5990    -5.4530 H       135  POP129      0.0263
 17348 H15Y        28.2580    21.0710    -3.7950 H       135  POP129      0.0263
 17349 C316        26.1860    20.9800    -4.4170 C.3     135  POP129     -0.0653
 17350 H16X        25.5790    20.6110    -5.2900 H       135  POP129      0.0230
 17351 H16Y        25.9040    22.0340    -4.3150 H       135  POP129      0.0230
 17352 H16Z        25.9020    20.4660    -3.5540 H       135  POP129      0.0230
 17353 N           28.4830   -18.6840   -24.1720 N.3     136  POP130      0.2385
 17354 C12         28.8400   -18.7180   -22.7160 C.3     136  POP130     -0.0064
 17355 H12A        28.3590   -19.5330   -22.2250 H       136  POP130      0.0838
 17356 H12B        28.3440   -17.8340   -22.2900 H       136  POP130      0.0838
 17357 C13         28.8470   -17.4030   -24.8060 C.3     136  POP130     -0.0417
 17358 H13A        28.7200   -17.5470   -25.8700 H       136  POP130      0.0778
 17359 H13B        28.2810   -16.5690   -24.3980 H       136  POP130      0.0778
 17360 H13C        29.9030   -17.1200   -24.5900 H       136  POP130      0.0778
 17361 C14         29.2520   -19.7660   -24.8480 C.3     136  POP130     -0.0417
 17362 H14A        30.2990   -19.4960   -24.9720 H       136  POP130      0.0778
 17363 H14B        29.2530   -20.6060   -24.2530 H       136  POP130      0.0778
 17364 H14C        28.7720   -19.8940   -25.8290 H       136  POP130      0.0778
 17365 C15         27.0230   -18.8910   -24.2290 C.3     136  POP130     -0.0417
 17366 H15A        26.7400   -19.8840   -23.9570 H       136  POP130      0.0778
 17367 H15B        26.4840   -18.8560   -25.2060 H       136  POP130      0.0778
 17368 H15C        26.5900   -18.1830   -23.5390 H       136  POP130      0.0778
 17369 C11         30.2940   -18.7780   -22.3480 C.3     136  POP130      0.0954
 17370 H11A        30.6740   -19.7390   -22.7750 H       136  POP130      0.0618
 17371 H11B        30.4150   -18.9280   -21.2410 H       136  POP130      0.0618
 17372 P           31.3370   -16.4130   -21.8090 P.3     136  POP130      0.2645
 17373 O13         30.0760   -15.8850   -21.3220 O.co2   136  POP130     -0.5105
 17374 O14         32.2410   -15.5110   -22.5100 O.co2   136  POP130     -0.5105
 17375 O12         31.0560   -17.7510   -22.7940 O.3     136  POP130     -0.3154
 17376 O11         32.2170   -17.0240   -20.6670 O.3     136  POP130     -0.3181
 17377 C1          33.4230   -17.7420   -20.8840 C.3     136  POP130      0.0845
 17378 HA          34.0660   -17.3510   -21.7640 H       136  POP130      0.0591
 17379 HB          33.2320   -18.8690   -21.0710 H       136  POP130      0.0591
 17380 C2          34.3360   -17.7350   -19.6430 C.3     136  POP130      0.1155
 17381 HS          35.2290   -18.3190   -19.8630 H       136  POP130      0.0649
 17382 O21         33.6580   -18.4010   -18.5430 O.3     136  POP130     -0.3072
 17383 C21         33.7890   -19.7250   -18.4940 C.2     136  POP130      0.2626
 17384 O22         34.3490   -20.4320   -19.3000 O.2     136  POP130     -0.2650
 17385 C22         33.0090   -20.2440   -17.2880 C.3     136  POP130      0.0332
 17386 H2R         32.4300   -21.1560   -17.6960 H       136  POP130      0.0366
 17387 H2S         32.3210   -19.5180   -16.8690 H       136  POP130      0.0366
 17388 C3          34.7610   -16.2300   -19.1470 C.3     136  POP130      0.0860
 17389 HX          33.7740   -15.8020   -18.9390 H       136  POP130      0.0593
 17390 HY          35.1970   -15.5320   -19.8940 H       136  POP130      0.0593
 17391 O31         35.5060   -16.2040   -17.8940 O.3     136  POP130     -0.3125
 17392 C31         36.7090   -16.4610   -17.9900 C.2     136  POP130      0.2622
 17393 O32         37.3510   -16.7470   -19.0050 O.2     136  POP130     -0.2650
 17394 C32         37.2650   -16.5240   -16.5380 C.3     136  POP130      0.0332
 17395 H2X         37.3790   -15.5080   -16.2090 H       136  POP130      0.0366
 17396 H2Y         38.2930   -16.8880   -16.7800 H       136  POP130      0.0366
 17397 C23         34.0000   -20.6750   -16.1800 C.3     136  POP130     -0.0441
 17398 H3R         33.4890   -20.7560   -15.2140 H       136  POP130      0.0270
 17399 H3S         34.7500   -19.9170   -15.9620 H       136  POP130      0.0270
 17400 C24         34.5050   -22.0630   -16.4480 C.3     136  POP130     -0.0526
 17401 H4R         34.7040   -22.3020   -17.4860 H       136  POP130      0.0265
 17402 H4S         33.6500   -22.7150   -16.1650 H       136  POP130      0.0265
 17403 C25         35.8680   -22.2980   -15.7450 C.3     136  POP130     -0.0530
 17404 H5R         35.8770   -23.4540   -15.5320 H       136  POP130      0.0265
 17405 H5S         35.8580   -21.7400   -14.8640 H       136  POP130      0.0265
 17406 C26         37.1430   -21.9110   -16.5730 C.3     136  POP130     -0.0528
 17407 H6R         36.9930   -20.9360   -16.9960 H       136  POP130      0.0265
 17408 H6S         37.1440   -22.5670   -17.4730 H       136  POP130      0.0265
 17409 C27         38.4720   -22.0200   -15.7670 C.3     136  POP130     -0.0496
 17410 H7R         39.3670   -21.9030   -16.4220 H       136  POP130      0.0268
 17411 H7S         38.5560   -23.0710   -15.3400 H       136  POP130      0.0268
 17412 C28         38.5610   -20.8520   -14.7760 C.3     136  POP130     -0.0348
 17413 H8R         37.6790   -20.9250   -14.1170 H       136  POP130      0.0307
 17414 H8S         38.4030   -19.9950   -15.4220 H       136  POP130      0.0307
 17415 C29         39.8010   -20.8370   -14.0080 C.2     136  POP130     -0.0879
 17416 H91         40.7000   -21.1210   -14.6430 H       136  POP130      0.0569
 17417 C210        39.8910   -20.5030   -12.7140 C.2     136  POP130     -0.0879
 17418 H101        40.9220   -20.5300   -12.2990 H       136  POP130      0.0569
 17419 C211        38.8180   -20.1250   -11.8260 C.3     136  POP130     -0.0348
 17420 H11R        38.1610   -20.9600   -11.8350 H       136  POP130      0.0307
 17421 H11S        38.2190   -19.2740   -12.2080 H       136  POP130      0.0307
 17422 C212        39.3310   -19.8750   -10.4470 C.3     136  POP130     -0.0496
 17423 H12R        39.8670   -18.8390   -10.3240 H       136  POP130      0.0268
 17424 H12S        40.0110   -20.7290   -10.1380 H       136  POP130      0.0268
 17425 C213        38.1370   -20.0250    -9.4120 C.3     136  POP130     -0.0528
 17426 H13R        37.4590   -20.8820    -9.6500 H       136  POP130      0.0265
 17427 H13S        37.4230   -19.1540    -9.5610 H       136  POP130      0.0265
 17428 C214        38.5250   -20.1520    -7.9820 C.3     136  POP130     -0.0530
 17429 H14R        39.3190   -19.4030    -7.7860 H       136  POP130      0.0265
 17430 H14S        39.0360   -21.1530    -7.9100 H       136  POP130      0.0265
 17431 C215        37.3220   -20.0740    -6.9740 C.3     136  POP130     -0.0531
 17432 H15R        36.6180   -20.9080    -6.8720 H       136  POP130      0.0265
 17433 H15S        36.7330   -19.1530    -7.1390 H       136  POP130      0.0265
 17434 C216        37.7700   -19.9750    -5.5490 C.3     136  POP130     -0.0533
 17435 H16R        36.9270   -19.8660    -4.8780 H       136  POP130      0.0265
 17436 H16S        38.2260   -19.0270    -5.3850 H       136  POP130      0.0265
 17437 C217        38.6500   -21.0270    -4.9700 C.3     136  POP130     -0.0559
 17438 H17R        39.3290   -21.3330    -5.6910 H       136  POP130      0.0263
 17439 H17S        38.0720   -21.9610    -4.7140 H       136  POP130      0.0263
 17440 C218        39.3680   -20.5380    -3.6700 C.3     136  POP130     -0.0653
 17441 H18R        39.9810   -19.6690    -3.9860 H       136  POP130      0.0230
 17442 H18S        40.1020   -21.3100    -3.4570 H       136  POP130      0.0230
 17443 H18T        38.6840   -20.4240    -2.8100 H       136  POP130      0.0230
 17444 C33         36.4310   -17.5440   -15.7360 C.3     136  POP130     -0.0441
 17445 H3X         36.3060   -18.5420   -16.1360 H       136  POP130      0.0270
 17446 H3Y         35.4770   -16.9840   -15.6670 H       136  POP130      0.0270
 17447 C34         36.9640   -17.7670   -14.3440 C.3     136  POP130     -0.0526
 17448 H4X         38.0560   -17.6120   -14.3090 H       136  POP130      0.0265
 17449 H4Y         36.5900   -18.7750   -14.0480 H       136  POP130      0.0265
 17450 C35         36.4570   -16.7520   -13.3040 C.3     136  POP130     -0.0530
 17451 H5X         35.3460   -16.7060   -13.2510 H       136  POP130      0.0265
 17452 H5Y         36.6040   -15.6730   -13.5550 H       136  POP130      0.0265
 17453 C36         36.8040   -17.0690   -11.8560 C.3     136  POP130     -0.0531
 17454 H6X         37.9880   -17.1350   -11.6970 H       136  POP130      0.0265
 17455 H6Y         36.4070   -18.1310   -11.6750 H       136  POP130      0.0265
 17456 C37         36.1390   -16.1600   -10.8850 C.3     136  POP130     -0.0531
 17457 H7X         35.0400   -16.0480   -11.1990 H       136  POP130      0.0265
 17458 H7Y         36.4330   -15.1040   -10.8450 H       136  POP130      0.0265
 17459 C38         36.0560   -16.7270    -9.4670 C.3     136  POP130     -0.0531
 17460 H8X         37.0790   -16.9620    -9.2110 H       136  POP130      0.0265
 17461 H8Y         35.4270   -17.6040    -9.3760 H       136  POP130      0.0265
 17462 C39         35.5750   -15.5970    -8.6160 C.3     136  POP130     -0.0531
 17463 H9X         34.6180   -15.1830    -9.0200 H       136  POP130      0.0265
 17464 H9Y         36.3010   -14.7090    -8.6650 H       136  POP130      0.0265
 17465 C310        35.1340   -16.0140    -7.2120 C.3     136  POP130     -0.0531
 17466 H10X        35.0750   -15.1340    -6.5280 H       136  POP130      0.0265
 17467 H10Y        35.9060   -16.6210    -6.7400 H       136  POP130      0.0265
 17468 C311        33.7760   -16.8240    -7.3520 C.3     136  POP130     -0.0531
 17469 H11X        33.8320   -17.8130    -7.9090 H       136  POP130      0.0265
 17470 H11Y        33.0510   -16.1610    -7.8700 H       136  POP130      0.0265
 17471 C312        33.0750   -17.1270    -6.0050 C.3     136  POP130     -0.0531
 17472 H12X        33.1020   -16.1750    -5.4380 H       136  POP130      0.0265
 17473 H12Y        33.7580   -17.9430    -5.4760 H       136  POP130      0.0265
 17474 C313        31.6410   -17.6740    -6.0970 C.3     136  POP130     -0.0531
 17475 H13X        30.9920   -16.8660    -6.4300 H       136  POP130      0.0265
 17476 H13Y        31.2230   -17.8560    -5.0720 H       136  POP130      0.0265
 17477 C314        31.5910   -18.8250    -7.0730 C.3     136  POP130     -0.0533
 17478 H14X        32.2170   -19.5770    -6.5770 H       136  POP130      0.0265
 17479 H14Y        31.8880   -18.6260    -8.0880 H       136  POP130      0.0265
 17480 C315        30.1980   -19.4620    -7.1590 C.3     136  POP130     -0.0559
 17481 H15X        30.1130   -20.2840    -7.9380 H       136  POP130      0.0263
 17482 H15Y        29.5340   -18.6160    -7.5370 H       136  POP130      0.0263
 17483 C316        29.6410   -20.0630    -5.9060 C.3     136  POP130     -0.0653
 17484 H16X        28.6490   -20.4710    -6.1900 H       136  POP130      0.0230
 17485 H16Y        29.3500   -19.3200    -5.1040 H       136  POP130      0.0230
 17486 H16Z        30.1960   -20.8910    -5.4500 H       136  POP130      0.0230
 17487 N            6.7720   -11.6460   -17.3910 N.3     137  POP131      0.2385
 17488 C12          7.3700   -10.5080   -16.7050 C.3     137  POP131     -0.0064
 17489 H12A         8.3420   -10.8940   -16.3620 H       137  POP131      0.0838
 17490 H12B         6.6390   -10.1430   -15.9870 H       137  POP131      0.0838
 17491 C13          6.7040   -12.7570   -16.4120 C.3     137  POP131     -0.0417
 17492 H13A         6.5410   -13.7130   -17.0230 H       137  POP131      0.0778
 17493 H13B         7.6250   -12.8450   -15.8380 H       137  POP131      0.0778
 17494 H13C         5.8430   -12.6030   -15.8270 H       137  POP131      0.0778
 17495 C14          5.3650   -11.4620   -17.9990 C.3     137  POP131     -0.0417
 17496 H14A         4.6770   -11.2500   -17.1380 H       137  POP131      0.0778
 17497 H14B         5.2660   -10.6960   -18.7350 H       137  POP131      0.0778
 17498 H14C         4.9890   -12.3970   -18.4340 H       137  POP131      0.0778
 17499 C15          7.6010   -11.9930   -18.5310 C.3     137  POP131     -0.0417
 17500 H15A         7.2680   -11.2960   -19.3650 H       137  POP131      0.0778
 17501 H15B         7.3300   -12.9420   -18.9320 H       137  POP131      0.0778
 17502 H15C         8.7680   -11.8440   -18.4050 H       137  POP131      0.0778
 17503 C11          7.5430    -9.2280   -17.5340 C.3     137  POP131      0.0954
 17504 H11A         6.5230    -9.0520   -18.0210 H       137  POP131      0.0618
 17505 H11B         8.2530    -9.3980   -18.4140 H       137  POP131      0.0618
 17506 P            9.5300    -8.1410   -16.3440 P.3     137  POP131      0.2645
 17507 O13          9.6760    -7.1750   -15.2350 O.co2   137  POP131     -0.5105
 17508 O14         10.2630    -7.7620   -17.5880 O.co2   137  POP131     -0.5105
 17509 O12          8.0290    -8.2030   -16.6880 O.3     137  POP131     -0.3154
 17510 O11          9.8660    -9.6180   -15.9240 O.3     137  POP131     -0.3181
 17511 C1          11.2530    -9.7570   -15.4330 C.3     137  POP131      0.0845
 17512 HA          11.5700    -9.0340   -14.6480 H       137  POP131      0.0591
 17513 HB          11.8520    -9.5680   -16.3630 H       137  POP131      0.0591
 17514 C2          11.4880   -11.1100   -14.7690 C.3     137  POP131      0.1155
 17515 HS          10.8100   -11.1780   -13.9370 H       137  POP131      0.0649
 17516 O21         12.8550   -11.0910   -14.4040 O.3     137  POP131     -0.3072
 17517 C21         13.0510   -10.6060   -13.1370 C.2     137  POP131      0.2626
 17518 O22         12.3000    -9.9640   -12.4350 O.2     137  POP131     -0.2650
 17519 C22         14.4720   -10.8360   -12.7450 C.3     137  POP131      0.0332
 17520 H2R         14.9800    -9.7990   -12.4950 H       137  POP131      0.0366
 17521 H2S         15.1170   -11.2620   -13.5150 H       137  POP131      0.0366
 17522 C3          11.2730   -12.1720   -15.8330 C.3     137  POP131      0.0860
 17523 HX          11.8940   -12.0300   -16.6440 H       137  POP131      0.0593
 17524 HY          10.2010   -12.0410   -16.1010 H       137  POP131      0.0593
 17525 O31         11.5300   -13.5290   -15.3440 O.3     137  POP131     -0.3125
 17526 C31         10.4530   -14.1590   -14.9020 C.2     137  POP131      0.2622
 17527 O32          9.3290   -13.7790   -15.0310 O.2     137  POP131     -0.2650
 17528 C32         10.7820   -15.4670   -14.2010 C.3     137  POP131      0.0332
 17529 H2X         11.8400   -15.5150   -13.9790 H       137  POP131      0.0366
 17530 H2Y         10.6100   -16.2570   -14.9160 H       137  POP131      0.0366
 17531 C23         14.4020   -11.8710   -11.6050 C.3     137  POP131     -0.0441
 17532 H3R         14.2510   -12.8480   -12.1730 H       137  POP131      0.0270
 17533 H3S         13.4740   -11.9040   -11.0470 H       137  POP131      0.0270
 17534 C24         15.5560   -11.9980   -10.7140 C.3     137  POP131     -0.0526
 17535 H4R         15.2720   -12.8750   -10.1260 H       137  POP131      0.0265
 17536 H4S         15.6000   -11.1080   -10.0280 H       137  POP131      0.0265
 17537 C25         16.9210   -12.1970   -11.3500 C.3     137  POP131     -0.0530
 17538 H5R         17.0030   -11.3630   -11.9900 H       137  POP131      0.0265
 17539 H5S         17.1360   -13.0030   -11.9540 H       137  POP131      0.0265
 17540 C26         18.0730   -12.1590   -10.3470 C.3     137  POP131     -0.0528
 17541 H6R         18.1730   -11.1550    -9.9570 H       137  POP131      0.0265
 17542 H6S         19.0030   -12.5280   -10.9190 H       137  POP131      0.0265
 17543 C27         17.9610   -13.1660    -9.1830 C.3     137  POP131     -0.0496
 17544 H7R         17.8950   -14.1730    -9.5990 H       137  POP131      0.0268
 17545 H7S         17.0230   -12.9010    -8.5880 H       137  POP131      0.0268
 17546 C28         19.0200   -13.0210    -8.1190 C.3     137  POP131     -0.0348
 17547 H8R         19.0260   -12.0600    -7.6140 H       137  POP131      0.0307
 17548 H8S         19.9890   -13.0320    -8.7160 H       137  POP131      0.0307
 17549 C29         19.1090   -14.1920    -7.1430 C.2     137  POP131     -0.0879
 17550 H91         19.6400   -15.0820    -7.4990 H       137  POP131      0.0569
 17551 C210        18.7110   -14.1280    -5.8940 C.2     137  POP131     -0.0879
 17552 H101        18.7710   -14.9990    -5.2290 H       137  POP131      0.0569
 17553 C211        18.0470   -12.9730    -5.2490 C.3     137  POP131     -0.0348
 17554 H11R        17.9470   -12.1070    -5.9390 H       137  POP131      0.0307
 17555 H11S        18.7230   -12.6890    -4.5030 H       137  POP131      0.0307
 17556 C212        16.6590   -13.2080    -4.7010 C.3     137  POP131     -0.0496
 17557 H12R        15.9630   -13.6190    -5.4390 H       137  POP131      0.0268
 17558 H12S        16.3490   -12.2130    -4.4090 H       137  POP131      0.0268
 17559 C213        16.6050   -14.0200    -3.3950 C.3     137  POP131     -0.0528
 17560 H13R        17.1280   -14.9470    -3.4220 H       137  POP131      0.0265
 17561 H13S        15.5260   -14.2800    -3.2580 H       137  POP131      0.0265
 17562 C214        17.0480   -13.1760    -2.2060 C.3     137  POP131     -0.0530
 17563 H14R        16.4680   -12.1890    -2.3270 H       137  POP131      0.0265
 17564 H14S        18.0590   -12.8980    -2.3480 H       137  POP131      0.0265
 17565 C215        16.7690   -13.8260    -0.7700 C.3     137  POP131     -0.0531
 17566 H15R        17.2540   -14.7590    -0.7960 H       137  POP131      0.0265
 17567 H15S        15.6940   -14.0480    -0.7560 H       137  POP131      0.0265
 17568 C216        17.1530   -12.9440     0.4040 C.3     137  POP131     -0.0533
 17569 H16R        16.4630   -13.0540     1.2950 H       137  POP131      0.0265
 17570 H16S        17.0320   -11.8580    -0.0780 H       137  POP131      0.0265
 17571 C217        18.5900   -13.0740     0.8470 C.3     137  POP131     -0.0559
 17572 H17R        18.7620   -12.4540     1.7320 H       137  POP131      0.0263
 17573 H17S        19.2730   -12.7300     0.0330 H       137  POP131      0.0263
 17574 C218        19.0390   -14.5660     1.1790 C.3     137  POP131     -0.0653
 17575 H18R        18.8390   -15.2550     0.3680 H       137  POP131      0.0230
 17576 H18S        18.5490   -14.9420     2.0900 H       137  POP131      0.0230
 17577 H18T        20.1360   -14.6250     1.2890 H       137  POP131      0.0230
 17578 C33          9.9570   -15.6250   -12.9190 C.3     137  POP131     -0.0441
 17579 H3X         10.1800   -16.5490   -12.4030 H       137  POP131      0.0270
 17580 H3Y          8.8390   -15.6050   -13.0870 H       137  POP131      0.0270
 17581 C34         10.0410   -14.4350   -11.9390 C.3     137  POP131     -0.0526
 17582 H4X          9.0760   -14.2610   -11.4360 H       137  POP131      0.0265
 17583 H4Y         10.1690   -13.4770   -12.4660 H       137  POP131      0.0265
 17584 C35         11.2420   -14.5510   -10.9560 C.3     137  POP131     -0.0530
 17585 H5X         12.1090   -14.4450   -11.5630 H       137  POP131      0.0265
 17586 H5Y         11.1080   -15.5450   -10.3800 H       137  POP131      0.0265
 17587 C36         11.1180   -13.5310    -9.8140 C.3     137  POP131     -0.0531
 17588 H6X         10.1010   -13.6470    -9.3270 H       137  POP131      0.0265
 17589 H6Y         11.1340   -12.5230   -10.2690 H       137  POP131      0.0265
 17590 C37         12.2070   -13.6330    -8.8070 C.3     137  POP131     -0.0531
 17591 H7X         13.1590   -13.5080    -9.3230 H       137  POP131      0.0265
 17592 H7Y         12.2650   -14.6800    -8.3020 H       137  POP131      0.0265
 17593 C38         12.1770   -12.5750    -7.6850 C.3     137  POP131     -0.0531
 17594 H8X         11.1520   -12.6090    -7.2000 H       137  POP131      0.0265
 17595 H8Y         12.1990   -11.5540    -8.1590 H       137  POP131      0.0265
 17596 C39         13.2580   -12.7550    -6.6200 C.3     137  POP131     -0.0531
 17597 H9X         14.2740   -12.6640    -7.1310 H       137  POP131      0.0265
 17598 H9Y         13.2180   -13.7700    -6.0910 H       137  POP131      0.0265
 17599 C310        13.2570   -11.6240    -5.5450 C.3     137  POP131     -0.0531
 17600 H10X        13.0080   -10.6530    -6.0630 H       137  POP131      0.0265
 17601 H10Y        14.2580   -11.4760    -5.0410 H       137  POP131      0.0265
 17602 C311        12.2440   -11.8930    -4.4320 C.3     137  POP131     -0.0531
 17603 H11X        12.1630   -13.0290    -4.4910 H       137  POP131      0.0265
 17604 H11Y        11.1950   -11.5650    -4.6630 H       137  POP131      0.0265
 17605 C312        12.7280   -11.6230    -3.0550 C.3     137  POP131     -0.0531
 17606 H12X        12.9090   -10.4970    -2.9290 H       137  POP131      0.0265
 17607 H12Y        13.6840   -12.0460    -2.9100 H       137  POP131      0.0265
 17608 C313        11.6940   -12.0100    -1.9650 C.3     137  POP131     -0.0531
 17609 H13X        11.6540   -13.1290    -1.9850 H       137  POP131      0.0265
 17610 H13Y        10.7380   -11.5950    -2.1750 H       137  POP131      0.0265
 17611 C314        12.1790   -11.6630    -0.5370 C.3     137  POP131     -0.0533
 17612 H14X        11.9800   -10.6410    -0.4330 H       137  POP131      0.0265
 17613 H14Y        13.3190   -11.8230    -0.5400 H       137  POP131      0.0265
 17614 C315        11.6520   -12.5860     0.6230 C.3     137  POP131     -0.0559
 17615 H15X        10.6310   -12.9790     0.2700 H       137  POP131      0.0263
 17616 H15Y        11.5160   -11.9670     1.5370 H       137  POP131      0.0263
 17617 C316        12.5120   -13.7700     0.8960 C.3     137  POP131     -0.0653
 17618 H16X        12.2560   -14.2530     1.8040 H       137  POP131      0.0230
 17619 H16Y        13.5420   -13.3380     1.0400 H       137  POP131      0.0230
 17620 H16Z        12.5150   -14.5890     0.0980 H       137  POP131      0.0230
 17621 N          -18.3690    -7.1190   -23.0830 N.3     138  POP132      0.2385
 17622 C12        -18.9300    -6.4190   -21.8550 C.3     138  POP132     -0.0064
 17623 H12A       -19.5140    -7.1150   -21.3120 H       138  POP132      0.0838
 17624 H12B       -19.4110    -5.5480   -22.2610 H       138  POP132      0.0838
 17625 C13        -17.3360    -8.2080   -22.7540 C.3     138  POP132     -0.0417
 17626 H13A       -17.7540    -8.7780   -21.9520 H       138  POP132      0.0778
 17627 H13B       -17.2950    -8.8770   -23.5260 H       138  POP132      0.0778
 17628 H13C       -16.3890    -7.8080   -22.4300 H       138  POP132      0.0778
 17629 C14        -19.4830    -7.8690   -23.7670 C.3     138  POP132     -0.0417
 17630 H14A       -19.9180    -8.7220   -23.2970 H       138  POP132      0.0778
 17631 H14B       -20.2250    -7.1620   -24.0490 H       138  POP132      0.0778
 17632 H14C       -19.2290    -8.3400   -24.7050 H       138  POP132      0.0778
 17633 C15        -17.7420    -6.1800   -24.0820 C.3     138  POP132     -0.0417
 17634 H15A       -17.6660    -6.6980   -24.9940 H       138  POP132      0.0778
 17635 H15B       -16.8200    -5.8330   -23.6400 H       138  POP132      0.0778
 17636 H15C       -18.4250    -5.3060   -24.0780 H       138  POP132      0.0778
 17637 C11        -17.9680    -5.8330   -20.8280 C.3     138  POP132      0.0954
 17638 H11A       -17.3060    -6.6530   -20.5410 H       138  POP132      0.0618
 17639 H11B       -18.5390    -5.5220   -19.9210 H       138  POP132      0.0618
 17640 P          -15.7920    -4.4840   -21.3870 P.3     138  POP132      0.2645
 17641 O13        -15.5170    -3.0620   -21.7030 O.co2   138  POP132     -0.5105
 17642 O14        -15.3350    -5.5190   -22.3200 O.co2   138  POP132     -0.5105
 17643 O12        -17.3170    -4.7040   -21.3360 O.3     138  POP132     -0.3154
 17644 O11        -15.3320    -4.7950   -19.8970 O.3     138  POP132     -0.3181
 17645 C1         -15.6230    -3.7700   -19.0070 C.3     138  POP132      0.0845
 17646 HA         -16.5750    -3.2280   -19.0050 H       138  POP132      0.0591
 17647 HB         -14.7900    -3.0720   -18.9500 H       138  POP132      0.0591
 17648 C2         -15.5070    -4.3570   -17.5730 C.3     138  POP132      0.1155
 17649 HS         -14.5360    -4.9260   -17.6010 H       138  POP132      0.0649
 17650 O21        -16.6890    -5.1120   -17.3540 O.3     138  POP132     -0.3072
 17651 C21        -16.4470    -6.2600   -16.8370 C.2     138  POP132      0.2626
 17652 O22        -15.3530    -6.6790   -16.5340 O.2     138  POP132     -0.2650
 17653 C22        -17.7750    -7.0270   -16.5660 C.3     138  POP132      0.0332
 17654 H2R        -18.1300    -7.1260   -17.6120 H       138  POP132      0.0366
 17655 H2S        -18.4900    -6.4060   -15.9890 H       138  POP132      0.0366
 17656 C3         -15.3290    -3.2810   -16.4420 C.3     138  POP132      0.0860
 17657 HX         -16.2050    -2.6330   -16.5870 H       138  POP132      0.0593
 17658 HY         -14.3750    -2.7920   -16.5800 H       138  POP132      0.0593
 17659 O31        -15.3800    -3.9290   -15.1600 O.3     138  POP132     -0.3125
 17660 C31        -15.5190    -3.0760   -14.0590 C.2     138  POP132      0.2622
 17661 O32        -15.5730    -1.8420   -14.0910 O.2     138  POP132     -0.2650
 17662 C32        -15.7890    -4.0620   -12.9350 C.3     138  POP132      0.0332
 17663 H2X        -15.0790    -4.9080   -12.8000 H       138  POP132      0.0366
 17664 H2Y        -16.7860    -4.4320   -13.1760 H       138  POP132      0.0366
 17665 C23        -17.6090    -8.4450   -15.9490 C.3     138  POP132     -0.0441
 17666 H3R        -17.0450    -9.1040   -16.5690 H       138  POP132      0.0270
 17667 H3S        -18.6710    -8.8310   -15.9310 H       138  POP132      0.0270
 17668 C24        -17.0830    -8.4270   -14.5580 C.3     138  POP132     -0.0526
 17669 H4R        -17.6500    -7.6840   -13.9500 H       138  POP132      0.0265
 17670 H4S        -16.0670    -8.0850   -14.4070 H       138  POP132      0.0265
 17671 C25        -17.1610    -9.8000   -13.8450 C.3     138  POP132     -0.0530
 17672 H5R        -16.7970   -10.5830   -14.6520 H       138  POP132      0.0265
 17673 H5S        -18.2680    -9.8590   -13.7180 H       138  POP132      0.0265
 17674 C26        -16.4520   -10.0680   -12.5460 C.3     138  POP132     -0.0528
 17675 H6R        -16.8950   -10.9690   -12.0280 H       138  POP132      0.0265
 17676 H6S        -16.6010    -9.1570   -11.9470 H       138  POP132      0.0265
 17677 C27        -14.9800   -10.2290   -12.6630 C.3     138  POP132     -0.0496
 17678 H7R        -14.5390    -9.3270   -13.0910 H       138  POP132      0.0268
 17679 H7S        -14.6080   -10.9730   -13.3440 H       138  POP132      0.0268
 17680 C28        -14.2660   -10.4950   -11.2850 C.3     138  POP132     -0.0348
 17681 H8R        -13.2350   -10.9450   -11.4260 H       138  POP132      0.0307
 17682 H8S        -14.6900   -11.4130   -10.8680 H       138  POP132      0.0307
 17683 C29        -14.2970    -9.4690   -10.1400 C.2     138  POP132     -0.0879
 17684 H91        -15.1940    -8.8480   -10.0630 H       138  POP132      0.0569
 17685 C210       -13.3390    -9.2120    -9.2160 C.2     138  POP132     -0.0879
 17686 H101       -13.5190    -8.3470    -8.5370 H       138  POP132      0.0569
 17687 C211       -12.0360    -9.9730    -9.0940 C.3     138  POP132     -0.0348
 17688 H11R       -11.8100   -10.9410    -9.6660 H       138  POP132      0.0307
 17689 H11S       -11.9830   -10.4000    -8.0120 H       138  POP132      0.0307
 17690 C212       -10.8810    -9.0440    -9.4330 C.3     138  POP132     -0.0496
 17691 H12R       -11.1940    -8.0390    -9.0750 H       138  POP132      0.0268
 17692 H12S       -10.8870    -9.0450   -10.5250 H       138  POP132      0.0268
 17693 C213        -9.5140    -9.4260    -8.8120 C.3     138  POP132     -0.0528
 17694 H13R        -8.8180    -8.5930    -9.1040 H       138  POP132      0.0265
 17695 H13S        -9.1720   -10.3790    -9.3160 H       138  POP132      0.0265
 17696 C214        -9.5370    -9.6890    -7.2920 C.3     138  POP132     -0.0530
 17697 H14R       -10.2580   -10.4150    -6.9150 H       138  POP132      0.0265
 17698 H14S        -9.8440    -8.6990    -6.7840 H       138  POP132      0.0265
 17699 C215        -8.1360   -10.1290    -6.8510 C.3     138  POP132     -0.0531
 17700 H15R        -7.4280    -9.3080    -7.2490 H       138  POP132      0.0265
 17701 H15S        -7.8310   -11.0790    -7.3050 H       138  POP132      0.0265
 17702 C216        -7.9250   -10.0860    -5.3210 C.3     138  POP132     -0.0533
 17703 H16R        -8.1500    -9.0770    -4.9210 H       138  POP132      0.0265
 17704 H16S        -6.8570   -10.3370    -5.0790 H       138  POP132      0.0265
 17705 C217        -8.7590   -11.1480    -4.5640 C.3     138  POP132     -0.0559
 17706 H17R        -8.5750   -12.1070    -5.0740 H       138  POP132      0.0263
 17707 H17S        -9.7370   -10.8350    -4.6880 H       138  POP132      0.0263
 17708 C218        -8.4320   -11.2270    -3.1010 C.3     138  POP132     -0.0653
 17709 H18R        -7.3680   -11.5350    -3.0630 H       138  POP132      0.0230
 17710 H18S        -9.0670   -11.9180    -2.5720 H       138  POP132      0.0230
 17711 H18T        -8.4460   -10.2830    -2.5010 H       138  POP132      0.0230
 17712 C33        -15.9720    -3.4120   -11.4950 C.3     138  POP132     -0.0441
 17713 H3X        -16.8030    -2.7070   -11.5080 H       138  POP132      0.0270
 17714 H3Y        -15.0000    -2.8630   -11.1890 H       138  POP132      0.0270
 17715 C34        -16.2280    -4.3950   -10.3790 C.3     138  POP132     -0.0526
 17716 H4X        -15.4580    -5.1900   -10.3440 H       138  POP132      0.0265
 17717 H4Y        -17.1330    -4.9790   -10.6780 H       138  POP132      0.0265
 17718 C35        -16.3740    -3.6530    -9.0420 C.3     138  POP132     -0.0530
 17719 H5X        -17.2610    -3.0840    -9.1770 H       138  POP132      0.0265
 17720 H5Y        -15.5280    -2.9130    -8.9320 H       138  POP132      0.0265
 17721 C36        -16.4270    -4.7180    -7.9450 C.3     138  POP132     -0.0531
 17722 H6X        -15.5270    -5.3280    -7.8670 H       138  POP132      0.0265
 17723 H6Y        -17.2260    -5.3720    -8.2790 H       138  POP132      0.0265
 17724 C37        -16.7160    -4.1500    -6.5820 C.3     138  POP132     -0.0531
 17725 H7X        -17.3180    -3.2550    -6.7780 H       138  POP132      0.0265
 17726 H7Y        -15.7630    -3.8550    -6.2280 H       138  POP132      0.0265
 17727 C38        -17.4430    -5.0230    -5.5900 C.3     138  POP132     -0.0531
 17728 H8X        -18.3220    -5.4350    -6.0660 H       138  POP132      0.0265
 17729 H8Y        -17.8210    -4.4670    -4.6650 H       138  POP132      0.0265
 17730 C39        -16.5840    -6.2010    -5.1620 C.3     138  POP132     -0.0531
 17731 H9X        -15.6690    -5.9390    -4.7070 H       138  POP132      0.0265
 17732 H9Y        -16.3120    -6.7970    -6.0970 H       138  POP132      0.0265
 17733 C310       -17.3640    -7.0250    -4.1500 C.3     138  POP132     -0.0531
 17734 H10X       -18.3270    -7.4040    -4.5860 H       138  POP132      0.0265
 17735 H10Y       -17.5260    -6.2990    -3.2850 H       138  POP132      0.0265
 17736 C311       -16.4740    -8.1570    -3.6200 C.3     138  POP132     -0.0531
 17737 H11X       -15.5230    -7.6380    -3.3010 H       138  POP132      0.0265
 17738 H11Y       -16.1990    -8.9210    -4.4540 H       138  POP132      0.0265
 17739 C312       -17.1180    -9.1240    -2.6690 C.3     138  POP132     -0.0531
 17740 H12X       -16.2050    -9.5990    -2.2040 H       138  POP132      0.0265
 17741 H12Y       -17.5280    -9.9470    -3.3010 H       138  POP132      0.0265
 17742 C313       -18.1360    -8.5310    -1.6760 C.3     138  POP132     -0.0531
 17743 H13X       -19.1110    -8.6290    -2.1740 H       138  POP132      0.0265
 17744 H13Y       -17.7960    -7.5110    -1.4820 H       138  POP132      0.0265
 17745 C314       -18.1950    -9.2230    -0.3180 C.3     138  POP132     -0.0533
 17746 H14X       -18.9550    -8.6920     0.3380 H       138  POP132      0.0265
 17747 H14Y       -17.1820    -9.1640     0.1590 H       138  POP132      0.0265
 17748 C315       -18.4890   -10.6980    -0.3170 C.3     138  POP132     -0.0559
 17749 H15X       -18.6170   -11.0320     0.8190 H       138  POP132      0.0263
 17750 H15Y       -17.5950   -11.2990    -0.7530 H       138  POP132      0.0263
 17751 C316       -19.8440   -11.1450    -0.9860 C.3     138  POP132     -0.0653
 17752 H16X       -19.8670   -10.6900    -1.9980 H       138  POP132      0.0230
 17753 H16Y       -20.7410   -10.6350    -0.5860 H       138  POP132      0.0230
 17754 H16Z       -19.8150   -12.2170    -1.1660 H       138  POP132      0.0230
 17755 N           29.1990     0.4420   -21.6730 N.3     139  POP133      0.2385
 17756 C12         27.9400     0.5590   -20.7940 C.3     139  POP133     -0.0064
 17757 H12A        27.0510     0.4100   -21.4370 H       139  POP133      0.0838
 17758 H12B        27.7790     1.5780   -20.4610 H       139  POP133      0.0838
 17759 C13         28.8990     1.0710   -22.9940 C.3     139  POP133     -0.0417
 17760 H13A        28.7860     2.1330   -22.9450 H       139  POP133      0.0778
 17761 H13B        29.6710     0.8640   -23.5930 H       139  POP133      0.0778
 17762 H13C        27.9650     0.6530   -23.3910 H       139  POP133      0.0778
 17763 C14         30.4400     1.0610   -21.0550 C.3     139  POP133     -0.0417
 17764 H14A        30.6390     0.6610   -20.0920 H       139  POP133      0.0778
 17765 H14B        31.2390     0.8840   -21.7280 H       139  POP133      0.0778
 17766 H14C        30.3370     2.1610   -20.9240 H       139  POP133      0.0778
 17767 C15         29.4190    -1.0460   -22.0320 C.3     139  POP133     -0.0417
 17768 H15A        29.6260    -1.5190   -21.1060 H       139  POP133      0.0778
 17769 H15B        30.3160    -1.2310   -22.5720 H       139  POP133      0.0778
 17770 H15C        28.6000    -1.5440   -22.3090 H       139  POP133      0.0778
 17771 C11         27.8440    -0.2580   -19.6000 C.3     139  POP133      0.0954
 17772 H11A        28.1240    -1.2680   -19.8890 H       139  POP133      0.0618
 17773 H11B        26.8250    -0.2910   -19.1700 H       139  POP133      0.0618
 17774 P           28.5610     1.4140   -17.8490 P.3     139  POP133      0.2645
 17775 O13         27.5150     2.1830   -18.5810 O.co2   139  POP133     -0.5105
 17776 O14         29.8010     2.1740   -17.8860 O.co2   139  POP133     -0.5105
 17777 O12         28.7990     0.0720   -18.5790 O.3     139  POP133     -0.3154
 17778 O11         27.9940     0.8480   -16.4360 O.3     139  POP133     -0.3181
 17779 C1          28.5330    -0.4000   -15.9580 C.3     139  POP133      0.0845
 17780 HA          29.6170    -0.6290   -16.1890 H       139  POP133      0.0591
 17781 HB          27.9180    -1.2660   -16.3930 H       139  POP133      0.0591
 17782 C2          28.5030    -0.4800   -14.3340 C.3     139  POP133      0.1155
 17783 HS          27.5350     0.0650   -14.0630 H       139  POP133      0.0649
 17784 O21         29.6500     0.3070   -13.8140 O.3     139  POP133     -0.3072
 17785 C21         29.5360     0.7660   -12.5720 C.2     139  POP133      0.2626
 17786 O22         28.4610     0.8870   -12.0430 O.2     139  POP133     -0.2650
 17787 C22         30.9270     1.2310   -12.1110 C.3     139  POP133      0.0332
 17788 H2R         31.3400     2.1000   -12.6570 H       139  POP133      0.0366
 17789 H2S         31.4790     0.2530   -12.0680 H       139  POP133      0.0366
 17790 C3          28.6360    -1.9410   -13.8430 C.3     139  POP133      0.0860
 17791 HX          29.6220    -2.3460   -14.2590 H       139  POP133      0.0593
 17792 HY          27.8930    -2.6040   -14.3250 H       139  POP133      0.0593
 17793 O31         28.6820    -2.0410   -12.4170 O.3     139  POP133     -0.3125
 17794 C31         27.6660    -2.7930   -11.8690 C.2     139  POP133      0.2622
 17795 O32         26.7490    -3.2500   -12.5430 O.2     139  POP133     -0.2650
 17796 C32         27.8380    -2.9700   -10.3160 C.3     139  POP133      0.0332
 17797 H2X         27.6250    -1.9200   -10.0080 H       139  POP133      0.0366
 17798 H2Y         28.8900    -3.2820   -10.1640 H       139  POP133      0.0366
 17799 C23         30.9080     1.5770   -10.6340 C.3     139  POP133     -0.0441
 17800 H3R         29.9800     2.1260   -10.3400 H       139  POP133      0.0270
 17801 H3S         31.6400     2.3930   -10.3620 H       139  POP133      0.0270
 17802 C24         31.1330     0.3980    -9.7170 C.3     139  POP133     -0.0526
 17803 H4R         32.0780    -0.0930    -9.9280 H       139  POP133      0.0265
 17804 H4S         30.3730    -0.4420    -9.7290 H       139  POP133      0.0265
 17805 C25         31.2670     0.7900    -8.2610 C.3     139  POP133     -0.0530
 17806 H5R         30.4090     1.1970    -7.7420 H       139  POP133      0.0265
 17807 H5S         32.0280     1.6700    -8.1380 H       139  POP133      0.0265
 17808 C26         31.8460    -0.3160    -7.2880 C.3     139  POP133     -0.0528
 17809 H6R         32.8510    -0.0200    -7.1000 H       139  POP133      0.0265
 17810 H6S         32.1080    -1.2070    -7.9470 H       139  POP133      0.0265
 17811 C27         31.0330    -0.6760    -6.0320 C.3     139  POP133     -0.0496
 17812 H7R         29.9210    -0.7370    -6.3500 H       139  POP133      0.0268
 17813 H7S         31.0140     0.1340    -5.2680 H       139  POP133      0.0268
 17814 C28         31.4590    -1.8950    -5.3100 C.3     139  POP133     -0.0348
 17815 H8R         31.4000    -2.7900    -5.9660 H       139  POP133      0.0307
 17816 H8S         30.8420    -1.9730    -4.4560 H       139  POP133      0.0307
 17817 C29         32.8700    -1.8080    -4.8450 C.2     139  POP133     -0.0879
 17818 H91         33.5310    -2.0740    -5.6610 H       139  POP133      0.0569
 17819 C210        33.3960    -1.3420    -3.7410 C.2     139  POP133     -0.0879
 17820 H101        34.4610    -1.4230    -3.6380 H       139  POP133      0.0569
 17821 C211        32.7370    -0.7640    -2.5160 C.3     139  POP133     -0.0348
 17822 H11R        31.5520    -0.7770    -2.5500 H       139  POP133      0.0307
 17823 H11S        33.1210     0.2660    -2.2680 H       139  POP133      0.0307
 17824 C212        33.1040    -1.5820    -1.3430 C.3     139  POP133     -0.0496
 17825 H12R        34.1630    -1.7870    -1.3180 H       139  POP133      0.0268
 17826 H12S        32.6350    -2.6270    -1.4960 H       139  POP133      0.0268
 17827 C213        32.5930    -1.0650     0.0230 C.3     139  POP133     -0.0528
 17828 H13R        31.5030    -0.8220    -0.0430 H       139  POP133      0.0265
 17829 H13S        33.2290    -0.2240     0.2870 H       139  POP133      0.0265
 17830 C214        32.8530    -2.1090     1.1610 C.3     139  POP133     -0.0530
 17831 H14R        33.9570    -2.2800     1.1840 H       139  POP133      0.0265
 17832 H14S        32.4690    -3.1500     0.7420 H       139  POP133      0.0265
 17833 C215        32.2790    -1.9430     2.5340 C.3     139  POP133     -0.0531
 17834 H15R        31.8950    -3.0020     2.8080 H       139  POP133      0.0265
 17835 H15S        31.4250    -1.4430     2.2940 H       139  POP133      0.0265
 17836 C216        33.2050    -1.3050     3.5810 C.3     139  POP133     -0.0533
 17837 H16R        33.8700    -0.5400     3.0990 H       139  POP133      0.0265
 17838 H16S        33.8940    -2.1670     3.9880 H       139  POP133      0.0265
 17839 C217        32.4230    -0.6850     4.7470 C.3     139  POP133     -0.0559
 17840 H17R        31.8350     0.0780     4.2480 H       139  POP133      0.0263
 17841 H17S        33.1690    -0.1530     5.4110 H       139  POP133      0.0263
 17842 C218        31.6370    -1.6510     5.6030 C.3     139  POP133     -0.0653
 17843 H18R        32.2570    -2.3250     6.3090 H       139  POP133      0.0230
 17844 H18S        31.1310    -2.3050     4.8120 H       139  POP133      0.0230
 17845 H18T        30.7920    -1.1970     6.1400 H       139  POP133      0.0230
 17846 C33         26.7790    -3.9270    -9.6780 C.3     139  POP133     -0.0441
 17847 H3X         27.0840    -4.9690    -9.8870 H       139  POP133      0.0270
 17848 H3Y         25.7350    -3.7710   -10.0040 H       139  POP133      0.0270
 17849 C34         26.8140    -3.7880    -8.1110 C.3     139  POP133     -0.0526
 17850 H4X         25.8710    -4.2000    -7.6520 H       139  POP133      0.0265
 17851 H4Y         26.8110    -2.7320    -7.9180 H       139  POP133      0.0265
 17852 C35         27.9350    -4.5740    -7.3910 C.3     139  POP133     -0.0530
 17853 H5X         28.9760    -4.2910    -7.6320 H       139  POP133      0.0265
 17854 H5Y         27.6990    -5.6660    -7.6050 H       139  POP133      0.0265
 17855 C36         27.7980    -4.4560    -5.8510 C.3     139  POP133     -0.0531
 17856 H6X         26.7300    -4.4450    -5.5520 H       139  POP133      0.0265
 17857 H6Y         28.1630    -3.4140    -5.5510 H       139  POP133      0.0265
 17858 C37         28.5450    -5.5670    -5.0930 C.3     139  POP133     -0.0531
 17859 H7X         29.6310    -5.4740    -5.1420 H       139  POP133      0.0265
 17860 H7Y         28.4340    -6.5560    -5.5830 H       139  POP133      0.0265
 17861 C38         28.2920    -5.6320    -3.5780 C.3     139  POP133     -0.0531
 17862 H8X         27.2360    -5.8630    -3.3090 H       139  POP133      0.0265
 17863 H8Y         28.3900    -4.6420    -3.0550 H       139  POP133      0.0265
 17864 C39         29.3170    -6.5000    -2.8800 C.3     139  POP133     -0.0531
 17865 H9X         30.3960    -6.2130    -3.0870 H       139  POP133      0.0265
 17866 H9Y         29.1810    -7.5750    -3.1650 H       139  POP133      0.0265
 17867 C310        29.1470    -6.5430    -1.3320 C.3     139  POP133     -0.0531
 17868 H10X        28.1550    -6.8470    -0.9760 H       139  POP133      0.0265
 17869 H10Y        29.3270    -5.4870    -0.9090 H       139  POP133      0.0265
 17870 C311        30.2650    -7.4790    -0.6940 C.3     139  POP133     -0.0531
 17871 H11X        31.2670    -7.1930    -0.9770 H       139  POP133      0.0265
 17872 H11Y        29.9650    -8.5070    -0.8930 H       139  POP133      0.0265
 17873 C312        30.2250    -7.3900     0.8490 C.3     139  POP133     -0.0531
 17874 H12X        29.1870    -7.5880     1.1480 H       139  POP133      0.0265
 17875 H12Y        30.5850    -6.3460     1.1650 H       139  POP133      0.0265
 17876 C313        31.2500    -8.4000     1.4580 C.3     139  POP133     -0.0531
 17877 H13X        32.2980    -8.0920     1.1480 H       139  POP133      0.0265
 17878 H13Y        31.0910    -9.4240     1.0620 H       139  POP133      0.0265
 17879 C314        31.2330    -8.5810     2.9860 C.3     139  POP133     -0.0533
 17880 H14X        31.4110    -7.5920     3.4310 H       139  POP133      0.0265
 17881 H14Y        32.0710    -9.2060     3.4220 H       139  POP133      0.0265
 17882 C315        29.8420    -9.0910     3.3950 C.3     139  POP133     -0.0559
 17883 H15X        30.0470    -9.9190     4.1070 H       139  POP133      0.0263
 17884 H15Y        29.3990    -9.5290     2.4910 H       139  POP133      0.0263
 17885 C316        28.9400    -7.9380     3.9040 C.3     139  POP133     -0.0653
 17886 H16X        28.6010    -7.2630     3.1190 H       139  POP133      0.0230
 17887 H16Y        29.4990    -7.3420     4.6210 H       139  POP133      0.0230
 17888 H16Z        28.0660    -8.3130     4.3220 H       139  POP133      0.0230
 17889 N           -7.6080    -6.2780   -13.4820 N.3     140  POP134      0.2385
 17890 C12         -6.1450    -6.6570   -13.7490 C.3     140  POP134     -0.0064
 17891 H12A        -6.0740    -7.6820   -13.4080 H       140  POP134      0.0838
 17892 H12B        -5.4950    -6.1210   -13.1060 H       140  POP134      0.0838
 17893 C13         -7.8840    -4.7900   -13.5500 C.3     140  POP134     -0.0417
 17894 H13A        -8.8020    -4.6090   -12.9920 H       140  POP134      0.0778
 17895 H13B        -7.0820    -4.2280   -13.2260 H       140  POP134      0.0778
 17896 H13C        -7.8950    -4.4750   -14.6290 H       140  POP134      0.0778
 17897 C14         -8.5370    -6.9040   -14.4700 C.3     140  POP134     -0.0417
 17898 H14A        -8.5120    -6.3820   -15.4140 H       140  POP134      0.0778
 17899 H14B        -8.4690    -8.0140   -14.5900 H       140  POP134      0.0778
 17900 H14C        -9.5240    -6.7000   -14.0300 H       140  POP134      0.0778
 17901 C15         -7.9280    -6.7850   -12.1280 C.3     140  POP134     -0.0417
 17902 H15A        -7.9240    -7.9310   -12.1330 H       140  POP134      0.0778
 17903 H15B        -9.0010    -6.5680   -11.8800 H       140  POP134      0.0778
 17904 H15C        -7.2880    -6.4210   -11.3410 H       140  POP134      0.0778
 17905 C11         -5.5680    -6.6650   -15.1620 C.3     140  POP134      0.0954
 17906 H11A        -6.1990    -7.2820   -15.8300 H       140  POP134      0.0618
 17907 H11B        -4.5110    -7.0570   -15.4240 H       140  POP134      0.0618
 17908 P           -4.5290    -4.1860   -15.4240 P.3     140  POP134      0.2645
 17909 O13         -5.1220    -2.8700   -15.8750 O.co2   140  POP134     -0.5105
 17910 O14         -3.2690    -4.4790   -16.1300 O.co2   140  POP134     -0.5105
 17911 O12         -5.5480    -5.3530   -15.7230 O.3     140  POP134     -0.3154
 17912 O11         -4.3200    -4.1900   -13.8650 O.3     140  POP134     -0.3181
 17913 C1          -3.9400    -2.9850   -13.2370 C.3     140  POP134      0.0845
 17914 HA          -4.5900    -2.1220   -13.4320 H       140  POP134      0.0591
 17915 HB          -2.9430    -2.7710   -13.5680 H       140  POP134      0.0591
 17916 C2          -4.0120    -3.2090   -11.7590 C.3     140  POP134      0.1155
 17917 HS          -3.3010    -4.0640   -11.6580 H       140  POP134      0.0649
 17918 O21         -5.3510    -3.2280   -11.3210 O.3     140  POP134     -0.3072
 17919 C21         -5.6210    -4.0070   -10.2480 C.2     140  POP134      0.2626
 17920 O22         -4.8040    -4.7460    -9.7520 O.2     140  POP134     -0.2650
 17921 C22         -7.0680    -3.8990    -9.8530 C.3     140  POP134      0.0332
 17922 H2R         -7.6060    -4.4890   -10.5920 H       140  POP134      0.0366
 17923 H2S         -7.2000    -2.7830    -9.8090 H       140  POP134      0.0366
 17924 C3          -3.2510    -2.0130   -11.0730 C.3     140  POP134      0.0860
 17925 HX          -3.9000    -1.2290   -11.3750 H       140  POP134      0.0593
 17926 HY          -2.3020    -1.7740   -11.5460 H       140  POP134      0.0593
 17927 O31         -3.2300    -2.1620    -9.6440 O.3     140  POP134     -0.3125
 17928 C31         -2.3540    -3.1500    -9.3090 C.2     140  POP134      0.2622
 17929 O32         -1.6960    -3.8460   -10.0100 O.2     140  POP134     -0.2650
 17930 C32         -2.3730    -3.2730    -7.7540 C.3     140  POP134      0.0332
 17931 H2X         -3.4940    -3.2160    -7.5760 H       140  POP134      0.0366
 17932 H2Y         -1.9010    -2.3880    -7.3450 H       140  POP134      0.0366
 17933 C23         -7.2850    -4.5920    -8.4720 C.3     140  POP134     -0.0441
 17934 H3R         -6.3640    -4.7740    -7.8790 H       140  POP134      0.0270
 17935 H3S         -7.8400    -5.5080    -8.7490 H       140  POP134      0.0270
 17936 C24         -8.2060    -3.7580    -7.5340 C.3     140  POP134     -0.0526
 17937 H4R         -9.1130    -3.4460    -8.0940 H       140  POP134      0.0265
 17938 H4S         -7.7250    -2.8140    -7.1650 H       140  POP134      0.0265
 17939 C25         -8.5840    -4.5660    -6.2600 C.3     140  POP134     -0.0530
 17940 H5R         -8.7760    -5.5990    -6.7270 H       140  POP134      0.0265
 17941 H5S         -9.4730    -4.0800    -5.8640 H       140  POP134      0.0265
 17942 C26         -7.4430    -4.5940    -5.2830 C.3     140  POP134     -0.0528
 17943 H6R         -7.5320    -3.8580    -4.5340 H       140  POP134      0.0265
 17944 H6S         -6.4580    -4.5700    -5.7600 H       140  POP134      0.0265
 17945 C27         -7.3350    -5.9490    -4.5690 C.3     140  POP134     -0.0496
 17946 H7R         -7.2870    -6.7660    -5.3620 H       140  POP134      0.0268
 17947 H7S         -8.3210    -6.1940    -3.9890 H       140  POP134      0.0268
 17948 C28         -6.1910    -6.2630    -3.6230 C.3     140  POP134     -0.0348
 17949 H8R         -5.2660    -6.2970    -4.2440 H       140  POP134      0.0307
 17950 H8S         -6.2710    -7.3450    -3.2590 H       140  POP134      0.0307
 17951 C29         -6.0880    -5.2740    -2.4810 C.2     140  POP134     -0.0879
 17952 H91         -5.8160    -4.2770    -2.7580 H       140  POP134      0.0569
 17953 C210        -6.3300    -5.4670    -1.1900 C.2     140  POP134     -0.0879
 17954 H101        -6.3830    -4.5770    -0.6120 H       140  POP134      0.0569
 17955 C211        -6.6760    -6.7780    -0.4650 C.3     140  POP134     -0.0348
 17956 H11R        -7.2350    -7.4230    -1.1300 H       140  POP134      0.0307
 17957 H11S        -7.2890    -6.5770     0.3840 H       140  POP134      0.0307
 17958 C212        -5.5060    -7.6240    -0.0380 C.3     140  POP134     -0.0496
 17959 H12R        -4.9030    -7.9640    -0.9070 H       140  POP134      0.0268
 17960 H12S        -5.9350    -8.5640     0.4920 H       140  POP134      0.0268
 17961 C213        -4.6670    -6.9390     1.0990 C.3     140  POP134     -0.0528
 17962 H13R        -5.4020    -6.7470     1.8490 H       140  POP134      0.0265
 17963 H13S        -4.2410    -5.9960     0.8230 H       140  POP134      0.0265
 17964 C214        -3.4460    -7.7800     1.6000 C.3     140  POP134     -0.0530
 17965 H14R        -2.5980    -7.7290     0.8110 H       140  POP134      0.0265
 17966 H14S        -3.7120    -8.8630     1.8370 H       140  POP134      0.0265
 17967 C215        -2.8850    -7.1840     2.8880 C.3     140  POP134     -0.0531
 17968 H15R        -3.5720    -7.5060     3.7140 H       140  POP134      0.0265
 17969 H15S        -2.9250    -6.0610     2.7720 H       140  POP134      0.0265
 17970 C216        -1.4350    -7.6800     3.1360 C.3     140  POP134     -0.0533
 17971 H16R        -0.7500    -7.3040     2.3630 H       140  POP134      0.0265
 17972 H16S        -1.4260    -8.7700     3.0140 H       140  POP134      0.0265
 17973 C217        -1.0750    -7.3870     4.5900 C.3     140  POP134     -0.0559
 17974 H17R        -0.1890    -7.9860     4.7410 H       140  POP134      0.0263
 17975 H17S        -1.8640    -7.6850     5.3010 H       140  POP134      0.0263
 17976 C218        -0.7100    -5.9720     4.9230 C.3     140  POP134     -0.0653
 17977 H18R        -1.6020    -5.3240     4.8720 H       140  POP134      0.0230
 17978 H18S         0.0740    -5.6000     4.2380 H       140  POP134      0.0230
 17979 H18T        -0.2750    -5.8640     5.9610 H       140  POP134      0.0230
 17980 C33         -1.9040    -4.6050    -7.1950 C.3     140  POP134     -0.0441
 17981 H3X         -1.6830    -4.3580    -6.1790 H       140  POP134      0.0270
 17982 H3Y         -0.9010    -4.9680    -7.6010 H       140  POP134      0.0270
 17983 C34         -2.9520    -5.7080    -7.1430 C.3     140  POP134     -0.0526
 17984 H4X         -3.0060    -6.2330    -8.1080 H       140  POP134      0.0265
 17985 H4Y         -3.9920    -5.3340    -6.8370 H       140  POP134      0.0265
 17986 C35         -2.6800    -6.8660    -6.0890 C.3     140  POP134     -0.0530
 17987 H5X         -2.5960    -6.4540    -5.0040 H       140  POP134      0.0265
 17988 H5Y         -1.7520    -7.4140    -6.4330 H       140  POP134      0.0265
 17989 C36         -3.7390    -7.9920    -6.1390 C.3     140  POP134     -0.0531
 17990 H6X         -3.8790    -8.2930    -7.1820 H       140  POP134      0.0265
 17991 H6Y         -4.7080    -7.6700    -5.7430 H       140  POP134      0.0265
 17992 C37         -3.2850    -9.2370    -5.3830 C.3     140  POP134     -0.0531
 17993 H7X         -2.2000    -9.3850    -5.6300 H       140  POP134      0.0265
 17994 H7Y         -3.8980   -10.0530    -5.8190 H       140  POP134      0.0265
 17995 C38         -3.6090    -9.1170    -3.9020 C.3     140  POP134     -0.0531
 17996 H8X         -4.6910    -8.9840    -3.7580 H       140  POP134      0.0265
 17997 H8Y         -3.1490    -8.2800    -3.3450 H       140  POP134      0.0265
 17998 C39         -2.9910   -10.3610    -3.1580 C.3     140  POP134     -0.0531
 17999 H9X         -1.8750   -10.3640    -3.4460 H       140  POP134      0.0265
 18000 H9Y         -3.3770   -11.3010    -3.4780 H       140  POP134      0.0265
 18001 C310        -3.0740   -10.2480    -1.6570 C.3     140  POP134     -0.0531
 18002 H10X        -4.1020   -10.4150    -1.3500 H       140  POP134      0.0265
 18003 H10Y        -2.7740    -9.3160    -1.2020 H       140  POP134      0.0265
 18004 C311        -2.2700   -11.4130    -1.1660 C.3     140  POP134     -0.0531
 18005 H11X        -1.1420   -11.2910    -1.3230 H       140  POP134      0.0265
 18006 H11Y        -2.5370   -12.4140    -1.6130 H       140  POP134      0.0265
 18007 C312        -2.3960   -11.4300     0.3620 C.3     140  POP134     -0.0531
 18008 H12X        -3.3450   -12.0000     0.5170 H       140  POP134      0.0265
 18009 H12Y        -2.4270   -10.3290     0.8350 H       140  POP134      0.0265
 18010 C313        -1.2630   -12.2590     1.0310 C.3     140  POP134     -0.0531
 18011 H13X        -1.1030   -11.9330     2.1330 H       140  POP134      0.0265
 18012 H13Y        -0.3150   -12.0600     0.5480 H       140  POP134      0.0265
 18013 C314        -1.6080   -13.7570     0.9340 C.3     140  POP134     -0.0533
 18014 H14X        -0.6800   -14.3080     1.0860 H       140  POP134      0.0265
 18015 H14Y        -1.9690   -13.9550    -0.1150 H       140  POP134      0.0265
 18016 C315        -2.6370   -14.3040     2.0000 C.3     140  POP134     -0.0559
 18017 H15X        -3.5440   -13.6890     1.8380 H       140  POP134      0.0263
 18018 H15Y        -2.1830   -14.1360     3.0090 H       140  POP134      0.0263
 18019 C316        -2.9050   -15.7690     1.7360 C.3     140  POP134     -0.0653
 18020 H16X        -3.0140   -15.9940     0.6400 H       140  POP134      0.0230
 18021 H16Y        -3.9440   -16.0330     2.1330 H       140  POP134      0.0230
 18022 H16Z        -2.0200   -16.4330     2.0560 H       140  POP134      0.0230
 18023 N           29.6680    -7.3930   -18.9840 N.3     141  POP135      0.2385
 18024 C12         29.2660    -8.8500   -18.5320 C.3     141  POP135     -0.0064
 18025 H12A        30.0570    -9.2550   -17.9330 H       141  POP135      0.0838
 18026 H12B        29.0470    -9.4720   -19.3420 H       141  POP135      0.0838
 18027 C13         28.4200    -6.6180   -19.1170 C.3     141  POP135     -0.0417
 18028 H13A        27.8620    -6.5710   -18.2350 H       141  POP135      0.0778
 18029 H13B        28.5520    -5.6150   -19.5200 H       141  POP135      0.0778
 18030 H13C        27.8840    -7.0530   -19.9560 H       141  POP135      0.0778
 18031 C14         30.4550    -6.7700   -17.8280 C.3     141  POP135     -0.0417
 18032 H14A        31.4460    -7.2860   -17.6170 H       141  POP135      0.0778
 18033 H14B        30.6320    -5.7380   -17.9920 H       141  POP135      0.0778
 18034 H14C        29.8250    -6.8540   -16.9570 H       141  POP135      0.0778
 18035 C15         30.4620    -7.3700   -20.2180 C.3     141  POP135     -0.0417
 18036 H15A        31.2670    -8.1100   -20.1090 H       141  POP135      0.0778
 18037 H15B        30.8690    -6.4050   -20.4550 H       141  POP135      0.0778
 18038 H15C        29.8770    -7.8360   -21.0020 H       141  POP135      0.0778
 18039 C11         28.0220    -8.8000   -17.5040 C.3     141  POP135      0.0954
 18040 H11A        27.6740    -9.7780   -17.2450 H       141  POP135      0.0618
 18041 H11B        27.0850    -8.3560   -17.8810 H       141  POP135      0.0618
 18042 P           29.1830    -8.9090   -15.0980 P.3     141  POP135      0.2645
 18043 O13         30.0790    -8.0010   -14.3990 O.co2   141  POP135     -0.5105
 18044 O14         29.7790   -10.1130   -15.7310 O.co2   141  POP135     -0.5105
 18045 O12         28.3610    -8.1140   -16.2700 O.3     141  POP135     -0.3154
 18046 O11         28.0540    -9.2250   -14.1310 O.3     141  POP135     -0.3181
 18047 C1          27.2050    -8.2650   -13.5110 C.3     141  POP135      0.0845
 18048 HA          26.1020    -8.3680   -13.8900 H       141  POP135      0.0591
 18049 HB          27.5540    -7.1950   -13.7500 H       141  POP135      0.0591
 18050 C2          27.1480    -8.4510   -12.0170 C.3     141  POP135      0.1155
 18051 HS          26.3880    -7.7040   -11.6070 H       141  POP135      0.0649
 18052 O21         28.4460    -8.2960   -11.4100 O.3     141  POP135     -0.3072
 18053 C21         28.9980    -7.1300   -11.6310 C.2     141  POP135      0.2626
 18054 O22         28.4620    -6.0990   -11.9850 O.2     141  POP135     -0.2650
 18055 C22         30.4530    -7.2050   -11.2090 C.3     141  POP135      0.0332
 18056 H2R         30.9980    -7.3900   -12.1270 H       141  POP135      0.0366
 18057 H2S         30.6460    -8.0260   -10.5940 H       141  POP135      0.0366
 18058 C3          26.6600    -9.8230   -11.6360 C.3     141  POP135      0.0860
 18059 HX          27.5090   -10.4750   -11.7880 H       141  POP135      0.0593
 18060 HY          25.8020   -10.1020   -12.2130 H       141  POP135      0.0593
 18061 O31         26.3330    -9.8360   -10.2670 O.3     141  POP135     -0.3125
 18062 C31         26.8770   -10.6530    -9.4050 C.2     141  POP135      0.2622
 18063 O32         27.3560   -11.7360    -9.6850 O.2     141  POP135     -0.2650
 18064 C32         26.6450   -10.2260    -7.9080 C.3     141  POP135      0.0332
 18065 H2X         26.0760   -11.0360    -7.3530 H       141  POP135      0.0366
 18066 H2Y         26.0500    -9.2390    -7.8670 H       141  POP135      0.0366
 18067 C23         30.8050    -5.8610   -10.5980 C.3     141  POP135     -0.0441
 18068 H3R         31.5460    -6.1290    -9.8030 H       141  POP135      0.0270
 18069 H3S         29.9580    -5.5490    -9.9460 H       141  POP135      0.0270
 18070 C24         31.3500    -4.8310   -11.5460 C.3     141  POP135     -0.0526
 18071 H4R         30.6370    -4.6810   -12.3470 H       141  POP135      0.0265
 18072 H4S         32.1510    -5.3240   -12.0640 H       141  POP135      0.0265
 18073 C25         31.8400    -3.5030   -11.0190 C.3     141  POP135     -0.0530
 18074 H5R         30.9130    -2.8990   -10.8080 H       141  POP135      0.0265
 18075 H5S         32.3590    -3.0010   -11.8490 H       141  POP135      0.0265
 18076 C26         32.8060    -3.5950    -9.8490 C.3     141  POP135     -0.0528
 18077 H6R         32.2060    -3.9440    -8.9460 H       141  POP135      0.0265
 18078 H6S         33.1850    -2.5970    -9.6690 H       141  POP135      0.0265
 18079 C27         34.0380    -4.4850   -10.0730 C.3     141  POP135     -0.0496
 18080 H7R         34.6230    -4.0300   -10.9220 H       141  POP135      0.0268
 18081 H7S         33.7310    -5.4910   -10.4330 H       141  POP135      0.0268
 18082 C28         35.0340    -4.5010    -8.9080 C.3     141  POP135     -0.0348
 18083 H8R         34.4790    -4.4920    -7.9150 H       141  POP135      0.0307
 18084 H8S         35.4960    -3.5180    -8.8510 H       141  POP135      0.0307
 18085 C29         36.1600    -5.5250    -8.7670 C.2     141  POP135     -0.0879
 18086 H91         35.9040    -6.5800    -8.4430 H       141  POP135      0.0569
 18087 C210        37.5030    -5.2470    -8.8740 C.2     141  POP135     -0.0879
 18088 H101        38.2100    -5.9700    -8.7740 H       141  POP135      0.0569
 18089 C211        38.1370    -3.9640    -9.3540 C.3     141  POP135     -0.0348
 18090 H11R        37.6550    -3.1750    -8.8160 H       141  POP135      0.0307
 18091 H11S        37.7850    -3.7580   -10.4130 H       141  POP135      0.0307
 18092 C212        39.6720    -3.8840    -9.1380 C.3     141  POP135     -0.0496
 18093 H12R        40.1130    -2.9240    -9.5520 H       141  POP135      0.0268
 18094 H12S        39.9660    -4.7610    -9.6700 H       141  POP135      0.0268
 18095 C213        40.0300    -3.8790    -7.6440 C.3     141  POP135     -0.0528
 18096 H13R        39.6240    -4.6610    -6.9680 H       141  POP135      0.0265
 18097 H13S        39.7690    -2.8310    -7.2540 H       141  POP135      0.0265
 18098 C214        41.5450    -3.9410    -7.5170 C.3     141  POP135     -0.0530
 18099 H14R        42.0420    -3.0910    -8.0110 H       141  POP135      0.0265
 18100 H14S        41.9670    -4.7740    -8.2410 H       141  POP135      0.0265
 18101 C215        41.9010    -4.2330    -6.0980 C.3     141  POP135     -0.0531
 18102 H15R        41.2480    -5.1280    -5.7720 H       141  POP135      0.0265
 18103 H15S        41.6930    -3.4000    -5.4940 H       141  POP135      0.0265
 18104 C216        43.3520    -4.5790    -5.9770 C.3     141  POP135     -0.0533
 18105 H16R        44.0980    -3.7640    -6.2030 H       141  POP135      0.0265
 18106 H16S        43.5440    -5.5290    -6.5340 H       141  POP135      0.0265
 18107 C217        43.8710    -5.1140    -4.5890 C.3     141  POP135     -0.0559
 18108 H17R        43.2930    -5.9570    -4.2470 H       141  POP135      0.0263
 18109 H17S        43.6300    -4.5000    -3.7300 H       141  POP135      0.0263
 18110 C218        45.3410    -5.5450    -4.7380 C.3     141  POP135     -0.0653
 18111 H18R        45.8490    -4.6440    -5.2120 H       141  POP135      0.0230
 18112 H18S        45.5280    -6.3950    -5.3390 H       141  POP135      0.0230
 18113 H18T        45.7190    -5.7810    -3.7720 H       141  POP135      0.0230
 18114 C33         27.9500   -10.1210    -7.0660 C.3     141  POP135     -0.0441
 18115 H3X         28.4570   -11.1140    -7.0460 H       141  POP135      0.0270
 18116 H3Y         27.8130    -9.8800    -5.9770 H       141  POP135      0.0270
 18117 C34         28.9740    -9.1170    -7.6080 C.3     141  POP135     -0.0526
 18118 H4X         28.5650    -8.1180    -7.6910 H       141  POP135      0.0265
 18119 H4Y         29.2250    -9.3730    -8.6430 H       141  POP135      0.0265
 18120 C35         30.1620    -8.9480    -6.7070 C.3     141  POP135     -0.0530
 18121 H5X         30.5360    -9.9590    -6.4630 H       141  POP135      0.0265
 18122 H5Y         29.8920    -8.5340    -5.7670 H       141  POP135      0.0265
 18123 C36         31.1940    -7.9740    -7.2830 C.3     141  POP135     -0.0531
 18124 H6X         30.7420    -6.9690    -7.3740 H       141  POP135      0.0265
 18125 H6Y         31.3990    -8.3880    -8.2870 H       141  POP135      0.0265
 18126 C37         32.5460    -7.8330    -6.5080 C.3     141  POP135     -0.0531
 18127 H7X         33.2090    -7.4390    -7.2460 H       141  POP135      0.0265
 18128 H7Y         32.8850    -8.7800    -6.1200 H       141  POP135      0.0265
 18129 C38         32.4680    -6.8850    -5.3140 C.3     141  POP135     -0.0531
 18130 H8X         31.5900    -7.1920    -4.7330 H       141  POP135      0.0265
 18131 H8Y         32.1960    -5.9100    -5.8290 H       141  POP135      0.0265
 18132 C39         33.7130    -6.8540    -4.5100 C.3     141  POP135     -0.0531
 18133 H9X         34.5340    -6.5920    -5.1840 H       141  POP135      0.0265
 18134 H9Y         33.8680    -7.9140    -4.1450 H       141  POP135      0.0265
 18135 C310        33.6700    -5.7460    -3.3920 C.3     141  POP135     -0.0531
 18136 H10X        32.7480    -5.7900    -2.8200 H       141  POP135      0.0265
 18137 H10Y        33.6070    -4.7610    -3.9030 H       141  POP135      0.0265
 18138 C311        34.8460    -5.7430    -2.4540 C.3     141  POP135     -0.0531
 18139 H11X        35.7080    -5.2780    -2.9820 H       141  POP135      0.0265
 18140 H11Y        35.1450    -6.8030    -2.2900 H       141  POP135      0.0265
 18141 C312        34.6100    -5.0550    -1.0850 C.3     141  POP135     -0.0531
 18142 H12X        33.5880    -5.4170    -0.6700 H       141  POP135      0.0265
 18143 H12Y        34.4830    -3.9290    -1.1490 H       141  POP135      0.0265
 18144 C313        35.6290    -5.4900    -0.0410 C.3     141  POP135     -0.0531
 18145 H13X        36.6260    -5.0580    -0.2130 H       141  POP135      0.0265
 18146 H13Y        35.7450    -6.6030    -0.0690 H       141  POP135      0.0265
 18147 C314        35.1440    -5.2420     1.3880 C.3     141  POP135     -0.0533
 18148 H14X        34.6210    -4.2970     1.3910 H       141  POP135      0.0265
 18149 H14Y        36.0320    -4.9730     1.9900 H       141  POP135      0.0265
 18150 C315        34.3890    -6.3900     2.0750 C.3     141  POP135     -0.0559
 18151 H15X        34.4830    -7.3870     1.4550 H       141  POP135      0.0263
 18152 H15Y        33.2970    -6.1510     1.9950 H       141  POP135      0.0263
 18153 C316        34.9090    -6.6480     3.4770 C.3     141  POP135     -0.0653
 18154 H16X        34.8960    -5.7210     4.1540 H       141  POP135      0.0230
 18155 H16Y        35.9310    -6.9810     3.4350 H       141  POP135      0.0230
 18156 H16Z        34.2740    -7.4490     3.8000 H       141  POP135      0.0230
 18157 N            0.7800    -3.2920   -12.7880 N.3     142  POP136      0.2385
 18158 C12          1.9100    -3.9470   -11.9870 C.3     142  POP136     -0.0064
 18159 H12A         2.7260    -3.1920   -11.9410 H       142  POP136      0.0838
 18160 H12B         2.4000    -4.7870   -12.4770 H       142  POP136      0.0838
 18161 C13          1.3850    -3.0920   -14.1150 C.3     142  POP136     -0.0417
 18162 H13A         2.2950    -2.5840   -14.0990 H       142  POP136      0.0778
 18163 H13B         1.6510    -4.0110   -14.6600 H       142  POP136      0.0778
 18164 H13C         0.6860    -2.6150   -14.8380 H       142  POP136      0.0778
 18165 C14         -0.4480    -4.1770   -12.8530 C.3     142  POP136     -0.0417
 18166 H14A        -0.8420    -4.2720   -11.9010 H       142  POP136      0.0778
 18167 H14B        -1.2080    -3.7980   -13.5370 H       142  POP136      0.0778
 18168 H14C        -0.1080    -5.0810   -13.3580 H       142  POP136      0.0778
 18169 C15          0.4340    -1.9770   -12.2800 C.3     142  POP136     -0.0417
 18170 H15A         0.1080    -2.2230   -11.1860 H       142  POP136      0.0778
 18171 H15B        -0.3410    -1.4360   -12.8280 H       142  POP136      0.0778
 18172 H15C         1.2860    -1.4450   -12.1470 H       142  POP136      0.0778
 18173 C11          1.6690    -4.3440   -10.4740 C.3     142  POP136      0.0954
 18174 H11A         2.6530    -4.7150   -10.0380 H       142  POP136      0.0618
 18175 H11B         0.8730    -5.1350   -10.4810 H       142  POP136      0.0618
 18176 P            2.1380    -2.1350    -9.0270 P.3     142  POP136      0.2645
 18177 O13          1.3640    -1.0650    -8.2650 O.co2   142  POP136     -0.5105
 18178 O14          3.0860    -1.5500   -10.0320 O.co2   142  POP136     -0.5105
 18179 O12          1.2220    -3.1570    -9.8010 O.3     142  POP136     -0.3154
 18180 O11          2.8810    -3.0570    -7.8810 O.3     142  POP136     -0.3181
 18181 C1           2.0610    -3.5970    -6.8140 C.3     142  POP136      0.0845
 18182 HA           2.3690    -4.7030    -6.6340 H       142  POP136      0.0591
 18183 HB           0.9450    -3.5780    -6.9940 H       142  POP136      0.0591
 18184 C2           2.4210    -3.0450    -5.3870 C.3     142  POP136      0.1155
 18185 HS           2.3480    -1.9620    -5.4810 H       142  POP136      0.0649
 18186 O21          3.7160    -3.4730    -4.9230 O.3     142  POP136     -0.3072
 18187 C21          3.9650    -3.5960    -3.7040 C.2     142  POP136      0.2626
 18188 O22          3.3670    -3.3200    -2.6700 O.2     142  POP136     -0.2650
 18189 C22          5.3540    -4.2460    -3.6630 C.3     142  POP136      0.0332
 18190 H2R          6.1010    -3.5120    -3.9600 H       142  POP136      0.0366
 18191 H2S          5.3900    -5.2530    -4.2230 H       142  POP136      0.0366
 18192 C3           1.1730    -3.2970    -4.4910 C.3     142  POP136      0.0860
 18193 HX           0.2950    -2.9980    -5.0510 H       142  POP136      0.0593
 18194 HY           1.2910    -2.6490    -3.5610 H       142  POP136      0.0593
 18195 O31          1.0150    -4.7130    -4.1150 O.3     142  POP136     -0.3125
 18196 C31         -0.0010    -4.9160    -3.2780 C.2     142  POP136      0.2622
 18197 O32         -0.7960    -4.0370    -2.9290 O.2     142  POP136     -0.2650
 18198 C32         -0.1640    -6.3960    -3.0200 C.3     142  POP136      0.0332
 18199 H2X          0.8870    -6.7970    -3.0370 H       142  POP136      0.0366
 18200 H2Y         -0.7530    -6.8890    -3.8200 H       142  POP136      0.0366
 18201 C23          5.8050    -4.6980    -2.2350 C.3     142  POP136     -0.0441
 18202 H3R          6.3120    -5.6950    -2.3860 H       142  POP136      0.0270
 18203 H3S          4.8390    -4.9760    -1.6690 H       142  POP136      0.0270
 18204 C24          6.6090    -3.6750    -1.5120 C.3     142  POP136     -0.0526
 18205 H4R          6.6550    -4.0030    -0.4520 H       142  POP136      0.0265
 18206 H4S          6.0670    -2.7170    -1.5530 H       142  POP136      0.0265
 18207 C25          8.0380    -3.6980    -1.9800 C.3     142  POP136     -0.0530
 18208 H5R          8.1130    -2.9380    -2.7580 H       142  POP136      0.0265
 18209 H5S          8.2870    -4.6930    -2.3450 H       142  POP136      0.0265
 18210 C26          9.0310    -3.3580    -0.8860 C.3     142  POP136     -0.0528
 18211 H6R          8.9700    -4.0820    -0.0700 H       142  POP136      0.0265
 18212 H6S          8.7490    -2.3770    -0.4400 H       142  POP136      0.0265
 18213 C27         10.4950    -3.2490    -1.4660 C.3     142  POP136     -0.0496
 18214 H7R         10.4660    -2.5590    -2.3740 H       142  POP136      0.0268
 18215 H7S         10.8430    -4.2700    -1.7530 H       142  POP136      0.0268
 18216 C28         11.4800    -2.6420    -0.5240 C.3     142  POP136     -0.0348
 18217 H8R         11.2390    -3.3460     0.3900 H       142  POP136      0.0307
 18218 H8S         11.1060    -1.5900    -0.3310 H       142  POP136      0.0307
 18219 C29         12.8770    -2.5640    -1.0640 C.2     142  POP136     -0.0879
 18220 H91         13.2130    -1.5400    -1.2180 H       142  POP136      0.0569
 18221 C210        13.7940    -3.5620    -1.3030 C.2     142  POP136     -0.0879
 18222 H101        14.7290    -3.2480    -1.7870 H       142  POP136      0.0569
 18223 C211        13.6150    -5.0330    -1.1880 C.3     142  POP136     -0.0348
 18224 H11R        13.7410    -5.5620    -2.1220 H       142  POP136      0.0307
 18225 H11S        12.5620    -5.2200    -0.8350 H       142  POP136      0.0307
 18226 C212        14.5240    -5.6490    -0.1190 C.3     142  POP136     -0.0496
 18227 H12R        14.5920    -5.0730     0.8280 H       142  POP136      0.0268
 18228 H12S        15.4930    -5.4690    -0.6500 H       142  POP136      0.0268
 18229 C213        14.2850    -7.1070     0.1310 C.3     142  POP136     -0.0528
 18230 H13R        15.2750    -7.5280     0.4540 H       142  POP136      0.0265
 18231 H13S        13.9440    -7.5500    -0.8060 H       142  POP136      0.0265
 18232 C214        13.2300    -7.4680     1.1850 C.3     142  POP136     -0.0530
 18233 H14R        12.1570    -7.4500     0.8240 H       142  POP136      0.0265
 18234 H14S        13.2350    -6.8570     2.1760 H       142  POP136      0.0265
 18235 C215        13.3860    -8.8940     1.8040 C.3     142  POP136     -0.0531
 18236 H15R        13.3330    -9.5800     0.9440 H       142  POP136      0.0265
 18237 H15S        12.5130    -9.1560     2.4050 H       142  POP136      0.0265
 18238 C216        14.6660    -9.2440     2.6120 C.3     142  POP136     -0.0533
 18239 H16R        14.5860    -8.6880     3.5370 H       142  POP136      0.0265
 18240 H16S        15.5240    -8.9480     2.0140 H       142  POP136      0.0265
 18241 C217        14.8270   -10.7540     3.0050 C.3     142  POP136     -0.0559
 18242 H17R        14.6010   -11.3020     2.1210 H       142  POP136      0.0263
 18243 H17S        14.0980   -11.0320     3.8080 H       142  POP136      0.0263
 18244 C218        16.3010   -10.8750     3.5140 C.3     142  POP136     -0.0653
 18245 H18R        16.9940   -10.9650     2.6580 H       142  POP136      0.0230
 18246 H18S        16.4190   -11.7850     4.0970 H       142  POP136      0.0230
 18247 H18T        16.6490    -9.9420     3.9870 H       142  POP136      0.0230
 18248 C33         -0.8440    -6.6370    -1.6820 C.3     142  POP136     -0.0441
 18249 H3X         -1.2610    -7.6790    -1.7320 H       142  POP136      0.0270
 18250 H3Y         -1.7660    -6.0740    -1.5330 H       142  POP136      0.0270
 18251 C34          0.0940    -6.5800    -0.4650 C.3     142  POP136     -0.0526
 18252 H4X         -0.6180    -6.3950     0.3610 H       142  POP136      0.0265
 18253 H4Y          0.6670    -5.6530    -0.5600 H       142  POP136      0.0265
 18254 C35          0.9120    -7.8850    -0.2760 C.3     142  POP136     -0.0530
 18255 H5X          1.5520    -7.9490    -1.1440 H       142  POP136      0.0265
 18256 H5Y          0.1180    -8.7560    -0.3750 H       142  POP136      0.0265
 18257 C36          1.8900    -7.9140     0.9590 C.3     142  POP136     -0.0531
 18258 H6X          2.4240    -8.8570     0.8660 H       142  POP136      0.0265
 18259 H6Y          1.4220    -7.8400     1.9210 H       142  POP136      0.0265
 18260 C37          2.8320    -6.7630     0.8740 C.3     142  POP136     -0.0531
 18261 H7X          2.2330    -5.8300     0.9550 H       142  POP136      0.0265
 18262 H7Y          3.2450    -6.7310    -0.1120 H       142  POP136      0.0265
 18263 C38          3.9920    -6.7510     1.9270 C.3     142  POP136     -0.0531
 18264 H8X          4.5520    -7.7550     1.9160 H       142  POP136      0.0265
 18265 H8Y          3.5340    -6.6960     2.9060 H       142  POP136      0.0265
 18266 C39          5.0120    -5.6080     1.6910 C.3     142  POP136     -0.0531
 18267 H9X          5.0210    -5.4310     0.6570 H       142  POP136      0.0265
 18268 H9Y          5.9550    -5.9080     2.1250 H       142  POP136      0.0265
 18269 C310         4.6000    -4.3590     2.4260 C.3     142  POP136     -0.0531
 18270 H10X         4.5680    -4.5780     3.4610 H       142  POP136      0.0265
 18271 H10Y         3.6380    -4.1270     2.0120 H       142  POP136      0.0265
 18272 C311         5.4760    -3.1350     2.1280 C.3     142  POP136     -0.0531
 18273 H11X         5.2730    -2.7680     1.1270 H       142  POP136      0.0265
 18274 H11Y         6.5080    -3.4830     2.1490 H       142  POP136      0.0265
 18275 C312         5.2460    -2.0670     3.1640 C.3     142  POP136     -0.0531
 18276 H12X         5.4630    -2.5510     4.1530 H       142  POP136      0.0265
 18277 H12Y         4.1960    -1.6140     3.1530 H       142  POP136      0.0265
 18278 C313         6.3480    -0.9800     2.9800 C.3     142  POP136     -0.0531
 18279 H13X         6.1570    -0.5790     1.9690 H       142  POP136      0.0265
 18280 H13Y         7.3340    -1.4930     2.9360 H       142  POP136      0.0265
 18281 C314         6.4430     0.1430     4.1040 C.3     142  POP136     -0.0533
 18282 H14X         7.3440     0.8700     3.9830 H       142  POP136      0.0265
 18283 H14Y         6.7270    -0.3480     5.0410 H       142  POP136      0.0265
 18284 C315         5.2620     1.0310     4.4290 C.3     142  POP136     -0.0559
 18285 H15X         4.3990     0.4890     4.8800 H       142  POP136      0.0263
 18286 H15Y         4.8370     1.4190     3.4540 H       142  POP136      0.0263
 18287 C316         5.7220     2.2600     5.1540 C.3     142  POP136     -0.0653
 18288 H16X         6.7190     2.6080     4.7170 H       142  POP136      0.0230
 18289 H16Y         5.7710     2.2900     6.2940 H       142  POP136      0.0230
 18290 H16Z         5.0130     3.1180     4.9770 H       142  POP136      0.0230
 18291 N          -24.9590   -10.9970   -20.2700 N.3     143  POP137      0.2385
 18292 C12        -24.8080    -9.5340   -19.8640 C.3     143  POP137     -0.0064
 18293 H12A       -24.1260    -9.4410   -18.9770 H       143  POP137      0.0838
 18294 H12B       -25.7890    -9.1320   -19.4540 H       143  POP137      0.0838
 18295 C13        -25.5930   -11.0310   -21.5780 C.3     143  POP137     -0.0417
 18296 H13A       -26.4050   -10.2720   -21.5530 H       143  POP137      0.0778
 18297 H13B       -24.8740   -10.5570   -22.3150 H       143  POP137      0.0778
 18298 H13C       -25.9320   -11.9790   -21.9640 H       143  POP137      0.0778
 18299 C14        -23.6710   -11.8520   -20.4150 C.3     143  POP137     -0.0417
 18300 H14A       -23.0580   -11.4390   -21.1470 H       143  POP137      0.0778
 18301 H14B       -23.1250   -11.9230   -19.5110 H       143  POP137      0.0778
 18302 H14C       -23.9900   -12.7830   -20.7710 H       143  POP137      0.0778
 18303 C15        -25.8360   -11.7360   -19.3120 C.3     143  POP137     -0.0417
 18304 H15A       -25.9270   -12.7460   -19.5180 H       143  POP137      0.0778
 18305 H15B       -26.8230   -11.3330   -19.2930 H       143  POP137      0.0778
 18306 H15C       -25.4390   -11.5880   -18.2620 H       143  POP137      0.0778
 18307 C11        -24.2660    -8.5210   -20.7900 C.3     143  POP137      0.0954
 18308 H11A       -24.2470    -7.4510   -20.4100 H       143  POP137      0.0618
 18309 H11B       -25.0140    -8.5260   -21.6480 H       143  POP137      0.0618
 18310 P          -21.7140    -8.6500   -20.4000 P.3     143  POP137      0.2645
 18311 O13        -21.4320    -7.2160   -20.5410 O.co2   143  POP137     -0.5105
 18312 O14        -20.5620    -9.4600   -20.9500 O.co2   143  POP137     -0.5105
 18313 O12        -22.9750    -8.9470   -21.2410 O.3     143  POP137     -0.3154
 18314 O11        -22.1530    -9.0130   -18.9400 O.3     143  POP137     -0.3181
 18315 C1         -21.4690    -9.8200   -17.9980 C.3     143  POP137      0.0845
 18316 HA         -20.4090    -9.4670   -17.8990 H       143  POP137      0.0591
 18317 HB         -21.6090   -10.8190   -18.3530 H       143  POP137      0.0591
 18318 C2         -22.0510    -9.7480   -16.5070 C.3     143  POP137      0.1155
 18319 HS         -23.1920    -9.8970   -16.7310 H       143  POP137      0.0649
 18320 O21        -21.7400    -8.4820   -15.9250 O.3     143  POP137     -0.3072
 18321 C21        -22.5530    -8.2060   -14.9710 C.2     143  POP137      0.2626
 18322 O22        -23.5380    -8.9090   -14.6380 O.2     143  POP137     -0.2650
 18323 C22        -22.0760    -6.9920   -14.2590 C.3     143  POP137      0.0332
 18324 H2R        -22.9980    -6.7120   -13.7130 H       143  POP137      0.0366
 18325 H2S        -21.7700    -6.2190   -14.9130 H       143  POP137      0.0366
 18326 C3         -21.5640   -11.0020   -15.5810 C.3     143  POP137      0.0860
 18327 HX         -20.6010   -10.6210   -15.1310 H       143  POP137      0.0593
 18328 HY         -21.0810   -11.7820   -16.2430 H       143  POP137      0.0593
 18329 O31        -22.5390   -11.4660   -14.6030 O.3     143  POP137     -0.3125
 18330 C31        -23.3270   -12.4890   -15.0930 C.2     143  POP137      0.2622
 18331 O32        -23.3310   -12.8640   -16.2550 O.2     143  POP137     -0.2650
 18332 C32        -24.0800   -13.1060   -13.8910 C.3     143  POP137      0.0332
 18333 H2X        -25.1610   -13.0900   -14.0840 H       143  POP137      0.0366
 18334 H2Y        -23.8560   -12.5930   -12.9010 H       143  POP137      0.0366
 18335 C23        -20.9790    -7.3560   -13.2240 C.3     143  POP137     -0.0441
 18336 H3R        -19.9380    -7.4240   -13.5760 H       143  POP137      0.0270
 18337 H3S        -21.3440    -8.1920   -12.5930 H       143  POP137      0.0270
 18338 C24        -20.7770    -6.1520   -12.2430 C.3     143  POP137     -0.0526
 18339 H4R        -21.7740    -5.9490   -11.7730 H       143  POP137      0.0265
 18340 H4S        -20.6130    -5.2470   -12.8740 H       143  POP137      0.0265
 18341 C25        -19.7550    -6.4350   -11.1810 C.3     143  POP137     -0.0530
 18342 H5R        -19.4430    -5.3940   -10.7370 H       143  POP137      0.0265
 18343 H5S        -18.8480    -6.8050   -11.7570 H       143  POP137      0.0265
 18344 C26        -20.2220    -7.4430   -10.1810 C.3     143  POP137     -0.0528
 18345 H6R        -20.7010    -8.2830   -10.6150 H       143  POP137      0.0265
 18346 H6S        -20.9800    -7.0560    -9.4720 H       143  POP137      0.0265
 18347 C27        -19.0190    -8.0520    -9.3830 C.3     143  POP137     -0.0496
 18348 H7R        -18.8070    -7.2780    -8.6830 H       143  POP137      0.0268
 18349 H7S        -18.0710    -8.0570    -9.9780 H       143  POP137      0.0268
 18350 C28        -19.2750    -9.4040    -8.5310 C.3     143  POP137     -0.0348
 18351 H8R        -18.4360    -9.4730    -7.7780 H       143  POP137      0.0307
 18352 H8S        -19.0340   -10.2810    -9.1490 H       143  POP137      0.0307
 18353 C29        -20.5340    -9.4700    -7.7640 C.2     143  POP137     -0.0879
 18354 H91        -21.3220    -8.8570    -8.2860 H       143  POP137      0.0569
 18355 C210       -20.7130    -9.7740    -6.4240 C.2     143  POP137     -0.0879
 18356 H101       -21.7010    -9.5470    -6.0300 H       143  POP137      0.0569
 18357 C211       -19.7160   -10.4220    -5.4850 C.3     143  POP137     -0.0348
 18358 H11R       -19.7160   -10.0340    -4.4500 H       143  POP137      0.0307
 18359 H11S       -18.6220   -10.3190    -5.8060 H       143  POP137      0.0307
 18360 C212       -19.8480   -11.9610    -5.3970 C.3     143  POP137     -0.0496
 18361 H12R       -18.9310   -12.3790    -4.9240 H       143  POP137      0.0268
 18362 H12S       -19.9950   -12.4700    -6.4410 H       143  POP137      0.0268
 18363 C213       -21.1010   -12.5040    -4.5740 C.3     143  POP137     -0.0528
 18364 H13R       -22.0150   -12.3370    -5.1750 H       143  POP137      0.0265
 18365 H13S       -21.1600   -12.0950    -3.6050 H       143  POP137      0.0265
 18366 C214       -21.1100   -14.0470    -4.5200 C.3     143  POP137     -0.0530
 18367 H14R       -21.0240   -14.5020    -5.5890 H       143  POP137      0.0265
 18368 H14S       -22.1870   -14.3420    -4.2230 H       143  POP137      0.0265
 18369 C215       -20.1740   -14.6440    -3.5460 C.3     143  POP137     -0.0531
 18370 H15R       -20.5630   -14.4180    -2.5510 H       143  POP137      0.0265
 18371 H15S       -19.2090   -14.1870    -3.6280 H       143  POP137      0.0265
 18372 C216       -19.9100   -16.0880    -3.7740 C.3     143  POP137     -0.0533
 18373 H16R       -19.8990   -16.3710    -4.8920 H       143  POP137      0.0265
 18374 H16S       -20.7090   -16.7670    -3.3860 H       143  POP137      0.0265
 18375 C217       -18.6600   -16.6930    -3.1910 C.3     143  POP137     -0.0559
 18376 H17R       -18.5250   -16.6020    -2.0780 H       143  POP137      0.0263
 18377 H17S       -17.7650   -16.2070    -3.6140 H       143  POP137      0.0263
 18378 C218       -18.4860   -18.2010    -3.6220 C.3     143  POP137     -0.0653
 18379 H18R       -19.2440   -18.7270    -3.0680 H       143  POP137      0.0230
 18380 H18S       -17.5170   -18.5840    -3.2240 H       143  POP137      0.0230
 18381 H18T       -18.5470   -18.3670    -4.7210 H       143  POP137      0.0230
 18382 C33        -23.5310   -14.5660   -13.8880 C.3     143  POP137     -0.0441
 18383 H3X        -22.4880   -14.5340   -13.4600 H       143  POP137      0.0270
 18384 H3Y        -23.6140   -14.9530   -14.9120 H       143  POP137      0.0270
 18385 C34        -24.3720   -15.5090   -12.9400 C.3     143  POP137     -0.0526
 18386 H4X        -24.1900   -16.5730   -13.1480 H       143  POP137      0.0265
 18387 H4Y        -25.5000   -15.3940   -12.8870 H       143  POP137      0.0265
 18388 C35        -24.0050   -15.4410   -11.4690 C.3     143  POP137     -0.0530
 18389 H5X        -24.0180   -14.3870   -11.1320 H       143  POP137      0.0265
 18390 H5Y        -22.9870   -15.9200   -11.2740 H       143  POP137      0.0265
 18391 C36        -24.8910   -16.2680   -10.5250 C.3     143  POP137     -0.0531
 18392 H6X        -24.7760   -17.2910   -10.9080 H       143  POP137      0.0265
 18393 H6Y        -25.8630   -15.9780   -10.6350 H       143  POP137      0.0265
 18394 C37        -24.4070   -16.1360    -9.0850 C.3     143  POP137     -0.0531
 18395 H7X        -24.4220   -15.0620    -8.8100 H       143  POP137      0.0265
 18396 H7Y        -23.4190   -16.4230    -8.9700 H       143  POP137      0.0265
 18397 C38        -25.3550   -16.9730    -8.2290 C.3     143  POP137     -0.0531
 18398 H8X        -25.3070   -17.9870    -8.6580 H       143  POP137      0.0265
 18399 H8Y        -26.3870   -16.6630    -8.3980 H       143  POP137      0.0265
 18400 C39        -25.1160   -16.9230    -6.6960 C.3     143  POP137     -0.0531
 18401 H9X        -25.7790   -17.7310    -6.3030 H       143  POP137      0.0265
 18402 H9Y        -25.4640   -15.9850    -6.2730 H       143  POP137      0.0265
 18403 C310       -23.7050   -17.2870    -6.3390 C.3     143  POP137     -0.0531
 18404 H10X       -23.1000   -16.4590    -6.6140 H       143  POP137      0.0265
 18405 H10Y       -23.4370   -18.0810    -7.0440 H       143  POP137      0.0265
 18406 C311       -23.3950   -17.7770    -4.9250 C.3     143  POP137     -0.0531
 18407 H11X       -22.2980   -17.8690    -4.7860 H       143  POP137      0.0265
 18408 H11Y       -23.8300   -18.8660    -4.8410 H       143  POP137      0.0265
 18409 C312       -24.2150   -17.0000    -3.8080 C.3     143  POP137     -0.0531
 18410 H12X       -25.3000   -17.1780    -3.9880 H       143  POP137      0.0265
 18411 H12Y       -23.9860   -15.9060    -3.9430 H       143  POP137      0.0265
 18412 C313       -23.8660   -17.4180    -2.3150 C.3     143  POP137     -0.0531
 18413 H13X       -22.7850   -17.2180    -2.0700 H       143  POP137      0.0265
 18414 H13Y       -24.0920   -18.4800    -2.1940 H       143  POP137      0.0265
 18415 C314       -24.7700   -16.7210    -1.2910 C.3     143  POP137     -0.0533
 18416 H14X       -24.2840   -16.8840    -0.3020 H       143  POP137      0.0265
 18417 H14Y       -25.7780   -17.2150    -1.2960 H       143  POP137      0.0265
 18418 C315       -24.9490   -15.2310    -1.5120 C.3     143  POP137     -0.0559
 18419 H15X       -25.5110   -15.1180    -2.4530 H       143  POP137      0.0263
 18420 H15Y       -23.8700   -14.8560    -1.6140 H       143  POP137      0.0263
 18421 C316       -25.4470   -14.4890    -0.3190 C.3     143  POP137     -0.0653
 18422 H16X       -25.2710   -13.3730    -0.3490 H       143  POP137      0.0230
 18423 H16Y       -25.1300   -14.9470     0.6290 H       143  POP137      0.0230
 18424 H16Z       -26.5760   -14.6800    -0.3400 H       143  POP137      0.0230
 18425 N           26.4400    17.7190   -19.8670 N.3     144  POP138      0.2385
 18426 C12         26.6830    16.2460   -20.0840 C.3     144  POP138     -0.0064
 18427 H12A        27.3170    16.2550   -20.9540 H       144  POP138      0.0838
 18428 H12B        25.7010    15.6500   -20.1830 H       144  POP138      0.0838
 18429 C13         26.1420    18.4380   -21.1930 C.3     144  POP138     -0.0417
 18430 H13A        26.8130    18.2110   -21.9470 H       144  POP138      0.0778
 18431 H13B        25.0790    18.2010   -21.5760 H       144  POP138      0.0778
 18432 H13C        26.2330    19.4860   -21.0040 H       144  POP138      0.0778
 18433 C14         25.3740    18.0070   -18.8150 C.3     144  POP138     -0.0417
 18434 H14A        24.4500    17.6260   -18.9380 H       144  POP138      0.0778
 18435 H14B        25.6550    17.5910   -17.8530 H       144  POP138      0.0778
 18436 H14C        25.2860    19.1040   -18.5890 H       144  POP138      0.0778
 18437 C15         27.6480    18.4710   -19.3140 C.3     144  POP138     -0.0417
 18438 H15A        28.1100    18.0040   -18.4100 H       144  POP138      0.0778
 18439 H15B        27.4190    19.4820   -19.1460 H       144  POP138      0.0778
 18440 H15C        28.4910    18.4630   -20.0750 H       144  POP138      0.0778
 18441 C11         27.3760    15.3720   -18.8560 C.3     144  POP138      0.0954
 18442 H11A        26.5910    15.5760   -18.0770 H       144  POP138      0.0618
 18443 H11B        28.2140    15.8460   -18.4680 H       144  POP138      0.0618
 18444 P           28.5070    13.4610   -20.0320 P.3     144  POP138      0.2645
 18445 O13         28.5860    14.4190   -21.1840 O.co2   144  POP138     -0.5105
 18446 O14         28.1730    12.0760   -20.3600 O.co2   144  POP138     -0.5105
 18447 O12         27.3590    13.9930   -19.0180 O.3     144  POP138     -0.3154
 18448 O11         29.8680    13.5600   -19.3060 O.3     144  POP138     -0.3181
 18449 C1          30.0050    12.6920   -18.1180 C.3     144  POP138      0.0845
 18450 HA          31.0430    12.4200   -18.0090 H       144  POP138      0.0591
 18451 HB          29.4380    11.7280   -18.0900 H       144  POP138      0.0591
 18452 C2          29.5580    13.5370   -16.8910 C.3     144  POP138      0.1155
 18453 HS          28.5970    13.9550   -17.1100 H       144  POP138      0.0649
 18454 O21         30.4570    14.6440   -16.8630 O.3     144  POP138     -0.3072
 18455 C21         30.0570    15.6950   -16.2200 C.2     144  POP138      0.2626
 18456 O22         28.9500    15.8660   -15.7230 O.2     144  POP138     -0.2650
 18457 C22         31.1490    16.7460   -16.0440 C.3     144  POP138      0.0332
 18458 H2R         30.9200    17.3780   -16.9200 H       144  POP138      0.0366
 18459 H2S         32.2320    16.3000   -16.2950 H       144  POP138      0.0366
 18460 C3          29.6310    12.6880   -15.5550 C.3     144  POP138      0.0860
 18461 HX          30.6020    12.0910   -15.6400 H       144  POP138      0.0593
 18462 HY          28.8720    11.9170   -15.6510 H       144  POP138      0.0593
 18463 O31         29.6590    13.4460   -14.3700 O.3     144  POP138     -0.3125
 18464 C31         28.4750    13.7830   -13.7810 C.2     144  POP138      0.2622
 18465 O32         27.4240    13.3100   -14.1240 O.2     144  POP138     -0.2650
 18466 C32         28.7180    14.6140   -12.5270 C.3     144  POP138      0.0332
 18467 H2X         29.1750    15.6050   -12.8190 H       144  POP138      0.0366
 18468 H2Y         29.5520    14.1320   -11.9470 H       144  POP138      0.0366
 18469 C23         31.2560    17.5950   -14.7950 C.3     144  POP138     -0.0441
 18470 H3R         30.1940    17.7800   -14.4050 H       144  POP138      0.0270
 18471 H3S         31.6000    18.6480   -14.9650 H       144  POP138      0.0270
 18472 C24         32.0560    16.9350   -13.6670 C.3     144  POP138     -0.0526
 18473 H4R         33.1000    17.0280   -13.8950 H       144  POP138      0.0265
 18474 H4S         31.7790    15.8530   -13.6200 H       144  POP138      0.0265
 18475 C25         31.9190    17.5920   -12.3060 C.3     144  POP138     -0.0530
 18476 H5R         30.8420    17.6970   -12.1780 H       144  POP138      0.0265
 18477 H5S         32.4240    18.5950   -12.3570 H       144  POP138      0.0265
 18478 C26         32.4890    16.7360   -11.1470 C.3     144  POP138     -0.0528
 18479 H6R         32.1720    15.6550   -11.3120 H       144  POP138      0.0265
 18480 H6S         31.9870    17.0940   -10.1890 H       144  POP138      0.0265
 18481 C27         33.9930    16.7100   -10.9140 C.3     144  POP138     -0.0496
 18482 H7R         34.3370    17.7280   -10.8120 H       144  POP138      0.0268
 18483 H7S         34.3420    16.4370   -11.9430 H       144  POP138      0.0268
 18484 C28         34.5680    15.6980    -9.8610 C.3     144  POP138     -0.0348
 18485 H8R         35.6380    15.9390    -9.8410 H       144  POP138      0.0307
 18486 H8S         34.3010    14.6240   -10.1710 H       144  POP138      0.0307
 18487 C29         34.0880    15.8940    -8.4080 C.2     144  POP138     -0.0879
 18488 H91         33.3210    15.1980    -8.0320 H       144  POP138      0.0569
 18489 C210        34.4490    16.9060    -7.5850 C.2     144  POP138     -0.0879
 18490 H101        33.9350    16.8880    -6.6230 H       144  POP138      0.0569
 18491 C211        35.3850    18.0970    -7.8540 C.3     144  POP138     -0.0348
 18492 H11R        35.6360    18.2890    -8.9160 H       144  POP138      0.0307
 18493 H11S        36.4270    18.0430    -7.4150 H       144  POP138      0.0307
 18494 C212        34.5780    19.2940    -7.4190 C.3     144  POP138     -0.0496
 18495 H12R        35.1240    20.2680    -7.3430 H       144  POP138      0.0268
 18496 H12S        34.2470    19.2240    -6.3800 H       144  POP138      0.0268
 18497 C213        33.3810    19.6380    -8.3550 C.3     144  POP138     -0.0528
 18498 H13R        32.7350    18.8010    -8.3620 H       144  POP138      0.0265
 18499 H13S        33.6760    19.8440    -9.4170 H       144  POP138      0.0265
 18500 C214        32.6360    20.9420    -7.9240 C.3     144  POP138     -0.0530
 18501 H14R        33.2310    21.8110    -8.2530 H       144  POP138      0.0265
 18502 H14S        32.4120    20.9240    -6.8320 H       144  POP138      0.0265
 18503 C215        31.2530    21.1930    -8.5750 C.3     144  POP138     -0.0531
 18504 H15R        30.5460    20.3490    -8.1100 H       144  POP138      0.0265
 18505 H15S        31.2470    20.9920    -9.6540 H       144  POP138      0.0265
 18506 C216        30.7140    22.5870    -8.3260 C.3     144  POP138     -0.0533
 18507 H16R        31.4000    23.3550    -8.8210 H       144  POP138      0.0265
 18508 H16S        30.7680    22.7940    -7.1910 H       144  POP138      0.0265
 18509 C217        29.2810    22.8100    -8.7850 C.3     144  POP138     -0.0559
 18510 H17R        28.6690    21.9840    -8.3580 H       144  POP138      0.0263
 18511 H17S        29.2430    22.6590    -9.8560 H       144  POP138      0.0263
 18512 C218        28.6390    24.1560    -8.3180 C.3     144  POP138     -0.0653
 18513 H18R        27.5910    24.3190    -8.6520 H       144  POP138      0.0230
 18514 H18S        29.3140    24.9090    -8.6870 H       144  POP138      0.0230
 18515 H18T        28.7270    24.2400    -7.2190 H       144  POP138      0.0230
 18516 C33         27.5700    14.7270   -11.5200 C.3     144  POP138     -0.0441
 18517 H3X         27.1210    13.6930   -11.2570 H       144  POP138      0.0270
 18518 H3Y         26.8450    15.3070   -12.1300 H       144  POP138      0.0270
 18519 C34         27.9710    15.5850   -10.2240 C.3     144  POP138     -0.0526
 18520 H4X         28.7820    16.2870   -10.5930 H       144  POP138      0.0265
 18521 H4Y         28.3320    14.8060    -9.5300 H       144  POP138      0.0265
 18522 C35         26.7720    16.3880    -9.6560 C.3     144  POP138     -0.0530
 18523 H5X         26.3130    16.9540   -10.5560 H       144  POP138      0.0265
 18524 H5Y         27.1920    17.0270    -8.9810 H       144  POP138      0.0265
 18525 C36         25.6450    15.5210    -9.0270 C.3     144  POP138     -0.0531
 18526 H6X         26.1330    14.7920    -8.4170 H       144  POP138      0.0265
 18527 H6Y         25.2890    14.8750    -9.8700 H       144  POP138      0.0265
 18528 C37         24.4520    16.2470    -8.3360 C.3     144  POP138     -0.0531
 18529 H7X         23.6830    15.5480    -8.1530 H       144  POP138      0.0265
 18530 H7Y         23.9710    17.0850    -8.9680 H       144  POP138      0.0265
 18531 C38         24.8610    16.8230    -6.9430 C.3     144  POP138     -0.0531
 18532 H8X         23.9580    17.2800    -6.4420 H       144  POP138      0.0265
 18533 H8Y         25.5550    17.6060    -7.1970 H       144  POP138      0.0265
 18534 C39         25.3930    15.7480    -5.9060 C.3     144  POP138     -0.0531
 18535 H9X         26.5020    15.9390    -5.7570 H       144  POP138      0.0265
 18536 H9Y         25.2770    14.7190    -6.3770 H       144  POP138      0.0265
 18537 C310        24.6190    15.6260    -4.6130 C.3     144  POP138     -0.0531
 18538 H10X        23.5850    15.4440    -4.8270 H       144  POP138      0.0265
 18539 H10Y        24.8260    16.6660    -4.2650 H       144  POP138      0.0265
 18540 C311        25.0960    14.4170    -3.7390 C.3     144  POP138     -0.0531
 18541 H11X        26.1450    14.2970    -3.9060 H       144  POP138      0.0265
 18542 H11Y        24.7970    13.5370    -4.2080 H       144  POP138      0.0265
 18543 C312        24.6180    14.4790    -2.2380 C.3     144  POP138     -0.0531
 18544 H12X        25.4380    14.8870    -1.7100 H       144  POP138      0.0265
 18545 H12Y        24.4810    13.3710    -1.9960 H       144  POP138      0.0265
 18546 C313        23.3770    15.2750    -1.9340 C.3     144  POP138     -0.0531
 18547 H13X        22.4850    14.8950    -2.4750 H       144  POP138      0.0265
 18548 H13Y        23.4450    16.3220    -2.1790 H       144  POP138      0.0265
 18549 C314        22.9550    15.1670    -0.4020 C.3     144  POP138     -0.0533
 18550 H14X        23.6950    15.5380     0.2450 H       144  POP138      0.0265
 18551 H14Y        22.8180    14.0470    -0.2650 H       144  POP138      0.0265
 18552 C315        21.6580    15.9270    -0.1360 C.3     144  POP138     -0.0559
 18553 H15X        20.9310    15.6930    -0.9970 H       144  POP138      0.0263
 18554 H15Y        21.7430    17.0100    -0.3900 H       144  POP138      0.0263
 18555 C316        21.1780    15.7230     1.3210 C.3     144  POP138     -0.0653
 18556 H16X        20.3260    16.4890     1.3760 H       144  POP138      0.0230
 18557 H16Y        21.8000    16.1160     2.2160 H       144  POP138      0.0230
 18558 H16Z        20.8880    14.6640     1.5270 H       144  POP138      0.0230
 18559 N          -23.8540     9.4060   -22.9120 N.3     145  POP139      0.2385
 18560 C12        -24.3380    10.2930   -21.8110 C.3     145  POP139     -0.0064
 18561 H12A       -25.4670    10.2980   -21.8540 H       145  POP139      0.0838
 18562 H12B       -23.9880    11.2520   -22.0510 H       145  POP139      0.0838
 18563 C13        -24.2680     7.9930   -22.8550 C.3     145  POP139     -0.0417
 18564 H13A       -25.2650     7.9050   -23.1990 H       145  POP139      0.0778
 18565 H13B       -23.7270     7.2670   -23.3630 H       145  POP139      0.0778
 18566 H13C       -24.0310     7.6720   -21.8120 H       145  POP139      0.0778
 18567 C14        -24.4160     9.9000   -24.2190 C.3     145  POP139     -0.0417
 18568 H14A       -24.3520    10.9790   -24.2650 H       145  POP139      0.0778
 18569 H14B       -23.9790     9.4760   -25.0260 H       145  POP139      0.0778
 18570 H14C       -25.4510     9.6470   -24.3450 H       145  POP139      0.0778
 18571 C15        -22.3360     9.5590   -23.0290 C.3     145  POP139     -0.0417
 18572 H15A       -22.0340    10.4260   -23.5570 H       145  POP139      0.0778
 18573 H15B       -21.9920     8.7210   -23.7270 H       145  POP139      0.0778
 18574 H15C       -21.7810     9.5140   -22.0620 H       145  POP139      0.0778
 18575 C11        -23.9160    10.0130   -20.3470 C.3     145  POP139      0.0954
 18576 H11A       -24.7100     9.4410   -19.7370 H       145  POP139      0.0618
 18577 H11B       -23.8830    10.9440   -19.7820 H       145  POP139      0.0618
 18578 P          -22.2640     8.1480   -19.4530 P.3     145  POP139      0.2645
 18579 O13        -20.8190     7.8220   -19.7480 O.co2   145  POP139     -0.5105
 18580 O14        -23.2580     7.1950   -19.8860 O.co2   145  POP139     -0.5105
 18581 O12        -22.5880     9.4840   -20.2800 O.3     145  POP139     -0.3154
 18582 O11        -22.3500     8.5840   -17.9810 O.3     145  POP139     -0.3181
 18583 C1         -22.0260     9.9590   -17.6820 C.3     145  POP139      0.0845
 18584 HA         -22.9690    10.4800   -17.4630 H       145  POP139      0.0591
 18585 HB         -21.5060    10.4850   -18.5820 H       145  POP139      0.0591
 18586 C2         -21.2710    10.2000   -16.3410 C.3     145  POP139      0.1155
 18587 HS         -20.2070     9.8280   -16.4270 H       145  POP139      0.0649
 18588 O21        -21.9190     9.4750   -15.2810 O.3     145  POP139     -0.3072
 18589 C21        -21.1450     9.0590   -14.2120 C.2     145  POP139      0.2626
 18590 O22        -19.9590     8.9520   -14.2470 O.2     145  POP139     -0.2650
 18591 C22        -22.1140     8.6430   -13.1180 C.3     145  POP139      0.0332
 18592 H2R        -21.6200     7.7290   -12.6610 H       145  POP139      0.0366
 18593 H2S        -23.0880     8.3910   -13.6600 H       145  POP139      0.0366
 18594 C3         -21.2470    11.6700   -15.9740 C.3     145  POP139      0.0860
 18595 HX         -22.1840    12.1650   -15.6340 H       145  POP139      0.0593
 18596 HY         -20.8900    12.1080   -16.9020 H       145  POP139      0.0593
 18597 O31        -20.2590    12.0210   -14.9480 O.3     145  POP139     -0.3125
 18598 C31        -19.9930    13.3060   -14.9050 C.2     145  POP139      0.2622
 18599 O32        -20.5380    14.1550   -15.5820 O.2     145  POP139     -0.2650
 18600 C32        -18.7660    13.5040   -13.9850 C.3     145  POP139      0.0332
 18601 H2X        -18.0780    14.1140   -14.5480 H       145  POP139      0.0366
 18602 H2Y        -18.3320    12.5490   -13.5980 H       145  POP139      0.0366
 18603 C23        -22.2760     9.7160   -12.0320 C.3     145  POP139     -0.0441
 18604 H3R        -22.3650    10.7090   -12.6220 H       145  POP139      0.0270
 18605 H3S        -21.2820     9.6720   -11.4620 H       145  POP139      0.0270
 18606 C24        -23.3450     9.6230   -10.9970 C.3     145  POP139     -0.0526
 18607 H4R        -24.3450     9.7630   -11.4080 H       145  POP139      0.0265
 18608 H4S        -23.0670    10.4330   -10.2100 H       145  POP139      0.0265
 18609 C25        -23.4220     8.2230   -10.2340 C.3     145  POP139     -0.0530
 18610 H5R        -23.5580     7.4140   -10.9640 H       145  POP139      0.0265
 18611 H5S        -24.4100     8.3080    -9.6990 H       145  POP139      0.0265
 18612 C26        -22.2620     7.9510    -9.2490 C.3     145  POP139     -0.0528
 18613 H6R        -22.1760     8.9510    -8.8040 H       145  POP139      0.0265
 18614 H6S        -21.3180     7.8150    -9.8470 H       145  POP139      0.0265
 18615 C27        -22.4310     6.7820    -8.3090 C.3     145  POP139     -0.0496
 18616 H7R        -22.4030     5.8360    -8.9210 H       145  POP139      0.0268
 18617 H7S        -23.4170     6.8130    -7.6900 H       145  POP139      0.0268
 18618 C28        -21.1930     6.7380    -7.3300 C.3     145  POP139     -0.0348
 18619 H8R        -20.3910     7.2940    -7.9150 H       145  POP139      0.0307
 18620 H8S        -20.8840     5.6600    -7.2780 H       145  POP139      0.0307
 18621 C29        -21.4220     7.3500    -5.9500 C.2     145  POP139     -0.0879
 18622 H91        -21.9850     8.2910    -5.9340 H       145  POP139      0.0569
 18623 C210       -21.1830     6.6900    -4.8420 C.2     145  POP139     -0.0879
 18624 H101       -21.4480     7.1580    -3.9050 H       145  POP139      0.0569
 18625 C211       -20.3490     5.4440    -4.7160 C.3     145  POP139     -0.0348
 18626 H11R       -19.9620     5.1960    -5.7180 H       145  POP139      0.0307
 18627 H11S       -21.0250     4.6580    -4.4110 H       145  POP139      0.0307
 18628 C212       -19.1850     5.5380    -3.7240 C.3     145  POP139     -0.0496
 18629 H12R       -18.7940     4.5370    -3.5460 H       145  POP139      0.0268
 18630 H12S       -19.5870     5.7120    -2.7200 H       145  POP139      0.0268
 18631 C213       -18.0440     6.4130    -4.2510 C.3     145  POP139     -0.0528
 18632 H13R       -18.3510     7.4150    -4.1780 H       145  POP139      0.0265
 18633 H13S       -17.9280     6.2630    -5.2830 H       145  POP139      0.0265
 18634 C214       -16.6830     6.2760    -3.3970 C.3     145  POP139     -0.0530
 18635 H14R       -15.9090     6.8390    -3.9080 H       145  POP139      0.0265
 18636 H14S       -16.3380     5.2800    -3.4170 H       145  POP139      0.0265
 18637 C215       -16.7220     6.6390    -1.9290 C.3     145  POP139     -0.0531
 18638 H15R       -17.4650     6.1980    -1.3010 H       145  POP139      0.0265
 18639 H15S       -17.0590     7.7120    -1.9440 H       145  POP139      0.0265
 18640 C216       -15.3010     6.5790    -1.2990 C.3     145  POP139     -0.0533
 18641 H16R       -14.6300     7.1830    -1.9410 H       145  POP139      0.0265
 18642 H16S       -14.8790     5.5320    -1.2930 H       145  POP139      0.0265
 18643 C217       -15.3970     7.1760     0.1680 C.3     145  POP139     -0.0559
 18644 H17R       -15.9850     6.5880     0.9380 H       145  POP139      0.0263
 18645 H17S       -15.9200     8.1470     0.1850 H       145  POP139      0.0263
 18646 C218       -13.9850     7.3490     0.6990 C.3     145  POP139     -0.0653
 18647 H18R       -13.5950     6.3130     0.9270 H       145  POP139      0.0230
 18648 H18S       -14.0050     7.9510     1.6040 H       145  POP139      0.0230
 18649 H18T       -13.3050     7.8570    -0.0570 H       145  POP139      0.0230
 18650 C33        -19.2220    14.4560   -12.7840 C.3     145  POP139     -0.0441
 18651 H3X        -19.7280    15.3520   -13.1700 H       145  POP139      0.0270
 18652 H3Y        -18.3400    14.6910   -12.1530 H       145  POP139      0.0270
 18653 C34        -20.2750    13.8130   -11.8020 C.3     145  POP139     -0.0526
 18654 H4X        -21.0590    13.2690   -12.3180 H       145  POP139      0.0265
 18655 H4Y        -20.7940    14.6070   -11.1900 H       145  POP139      0.0265
 18656 C35        -19.7160    12.9000   -10.7650 C.3     145  POP139     -0.0530
 18657 H5X        -18.7630    13.3240   -10.3970 H       145  POP139      0.0265
 18658 H5Y        -19.3430    11.9930   -11.1970 H       145  POP139      0.0265
 18659 C36        -20.7000    12.5170    -9.6350 C.3     145  POP139     -0.0531
 18660 H6X        -21.5180    11.8320    -9.9340 H       145  POP139      0.0265
 18661 H6Y        -21.1640    13.4620    -9.3750 H       145  POP139      0.0265
 18662 C37        -19.9610    11.9300    -8.3860 C.3     145  POP139     -0.0531
 18663 H7X        -19.2520    12.7450    -8.0730 H       145  POP139      0.0265
 18664 H7Y        -19.3200    11.0080    -8.6230 H       145  POP139      0.0265
 18665 C38        -20.8780    11.6630    -7.2540 C.3     145  POP139     -0.0531
 18666 H8X        -21.5310    10.8230    -7.6760 H       145  POP139      0.0265
 18667 H8Y        -21.5600    12.5400    -7.0510 H       145  POP139      0.0265
 18668 C39        -20.1670    11.1930    -6.0320 C.3     145  POP139     -0.0531
 18669 H9X        -19.3650    11.9580    -5.6650 H       145  POP139      0.0265
 18670 H9Y        -19.5230    10.2830    -6.1940 H       145  POP139      0.0265
 18671 C310       -21.0500    10.8850    -4.8350 C.3     145  POP139     -0.0531
 18672 H10X       -20.4860    10.2490    -4.1520 H       145  POP139      0.0265
 18673 H10Y       -21.9420    10.3390    -5.1880 H       145  POP139      0.0265
 18674 C311       -21.5030    12.1250    -4.0470 C.3     145  POP139     -0.0531
 18675 H11X       -21.9850    12.8980    -4.7310 H       145  POP139      0.0265
 18676 H11Y       -20.5540    12.5230    -3.6370 H       145  POP139      0.0265
 18677 C312       -22.3000    11.7180    -2.7660 C.3     145  POP139     -0.0531
 18678 H12X       -21.6760    10.9800    -2.3450 H       145  POP139      0.0265
 18679 H12Y       -23.2710    11.1290    -3.0630 H       145  POP139      0.0265
 18680 C313       -22.6920    12.8480    -1.8480 C.3     145  POP139     -0.0531
 18681 H13X       -23.4590    13.4860    -2.3100 H       145  POP139      0.0265
 18682 H13Y       -21.8230    13.5480    -1.6180 H       145  POP139      0.0265
 18683 C314       -23.3510    12.3520    -0.5150 C.3     145  POP139     -0.0533
 18684 H14X       -22.6010    11.7680     0.0530 H       145  POP139      0.0265
 18685 H14Y       -24.1430    11.6730    -0.7390 H       145  POP139      0.0265
 18686 C315       -23.9510    13.5230     0.4010 C.3     145  POP139     -0.0559
 18687 H15X       -24.7040    13.9430    -0.2760 H       145  POP139      0.0263
 18688 H15Y       -23.1440    14.2490     0.5240 H       145  POP139      0.0263
 18689 C316       -24.4520    13.0120     1.8300 C.3     145  POP139     -0.0653
 18690 H16X       -23.5870    12.8110     2.5060 H       145  POP139      0.0230
 18691 H16Y       -25.1020    12.1440     1.6770 H       145  POP139      0.0230
 18692 H16Z       -25.0590    13.8320     2.2690 H       145  POP139      0.0230
 18693 N          -30.6360    -6.2410   -18.3230 N.3     146  POP140      0.2385
 18694 C12        -29.5040    -6.9600   -17.5320 C.3     146  POP140     -0.0064
 18695 H12A       -28.7610    -6.2710   -17.0610 H       146  POP140      0.0838
 18696 H12B       -28.9170    -7.5270   -18.2880 H       146  POP140      0.0838
 18697 C13        -31.2880    -7.1520   -19.3080 C.3     146  POP140     -0.0417
 18698 H13A       -30.5540    -7.4320   -20.0980 H       146  POP140      0.0778
 18699 H13B       -31.7280    -8.0050   -18.7920 H       146  POP140      0.0778
 18700 H13C       -32.1560    -6.6800   -19.6380 H       146  POP140      0.0778
 18701 C14        -31.7320    -5.7900   -17.4190 C.3     146  POP140     -0.0417
 18702 H14A       -32.2390    -4.9480   -17.9350 H       146  POP140      0.0778
 18703 H14B       -32.3740    -6.6510   -17.2240 H       146  POP140      0.0778
 18704 H14C       -31.3680    -5.5300   -16.4610 H       146  POP140      0.0778
 18705 C15        -29.9530    -5.0780   -19.0170 C.3     146  POP140     -0.0417
 18706 H15A       -30.6950    -4.4310   -19.3950 H       146  POP140      0.0778
 18707 H15B       -29.2230    -5.3730   -19.6970 H       146  POP140      0.0778
 18708 H15C       -29.3450    -4.5160   -18.2580 H       146  POP140      0.0778
 18709 C11        -29.9440    -7.9940   -16.4770 C.3     146  POP140      0.0954
 18710 H11A       -30.5840    -7.4440   -15.7550 H       146  POP140      0.0618
 18711 H11B       -29.0140    -8.2620   -15.8710 H       146  POP140      0.0618
 18712 P          -29.9330   -10.2320   -17.7900 P.3     146  POP140      0.2645
 18713 O13        -28.6020    -9.7080   -18.1940 O.co2   146  POP140     -0.5105
 18714 O14        -30.8050   -10.5790   -18.9140 O.co2   146  POP140     -0.5105
 18715 O12        -30.6460    -9.1220   -17.0010 O.3     146  POP140     -0.3154
 18716 O11        -29.8220   -11.4660   -16.7550 O.3     146  POP140     -0.3181
 18717 C1         -31.0250   -11.9300   -16.1120 C.3     146  POP140      0.0845
 18718 HA         -31.2100   -13.0380   -16.3130 H       146  POP140      0.0591
 18719 HB         -31.8810   -11.4170   -16.4860 H       146  POP140      0.0591
 18720 C2         -31.0510   -11.9270   -14.5870 C.3     146  POP140      0.1155
 18721 HS         -31.1340   -10.8690   -14.2090 H       146  POP140      0.0649
 18722 O21        -29.8090   -12.5030   -14.1150 O.3     146  POP140     -0.3072
 18723 C21        -29.3280   -11.9090   -13.0050 C.2     146  POP140      0.2626
 18724 O22        -29.9340   -11.0560   -12.3770 O.2     146  POP140     -0.2650
 18725 C22        -27.9720   -12.4530   -12.7290 C.3     146  POP140      0.0332
 18726 H2R        -27.2290   -11.8860   -13.3100 H       146  POP140      0.0366
 18727 H2S        -27.8230   -13.4600   -13.1130 H       146  POP140      0.0366
 18728 C3         -32.3770   -12.6070   -13.9950 C.3     146  POP140      0.0860
 18729 HX         -32.4480   -13.6480   -14.3060 H       146  POP140      0.0593
 18730 HY         -33.1570   -12.0010   -14.5140 H       146  POP140      0.0593
 18731 O31        -32.3790   -12.5900   -12.5480 O.3     146  POP140     -0.3125
 18732 C31        -32.9120   -11.6100   -11.9480 C.2     146  POP140      0.2622
 18733 O32        -33.5540   -10.7070   -12.4590 O.2     146  POP140     -0.2650
 18734 C32        -32.5780   -11.8600   -10.3680 C.3     146  POP140      0.0332
 18735 H2X        -31.4660   -11.7880   -10.3840 H       146  POP140      0.0366
 18736 H2Y        -32.8940   -12.8690   -10.1410 H       146  POP140      0.0366
 18737 C23        -27.6850   -12.2400   -11.2380 C.3     146  POP140     -0.0441
 18738 H3R        -28.5250   -12.7720   -10.6880 H       146  POP140      0.0270
 18739 H3S        -27.7150   -11.0750   -10.9110 H       146  POP140      0.0270
 18740 C24        -26.3870   -12.8780   -10.7650 C.3     146  POP140     -0.0526
 18741 H4R        -25.5920   -12.5410   -11.3990 H       146  POP140      0.0265
 18742 H4S        -26.4330   -14.0150   -10.8590 H       146  POP140      0.0265
 18743 C25        -26.0760   -12.4600    -9.3490 C.3     146  POP140     -0.0530
 18744 H5R        -26.1190   -11.3320    -9.2230 H       146  POP140      0.0265
 18745 H5S        -25.0330   -12.7850    -9.0990 H       146  POP140      0.0265
 18746 C26        -26.8490   -13.1510    -8.2270 C.3     146  POP140     -0.0528
 18747 H6R        -26.9210   -14.2580    -8.3360 H       146  POP140      0.0265
 18748 H6S        -27.9110   -12.7910    -8.3500 H       146  POP140      0.0265
 18749 C27        -26.2030   -13.0090    -6.8480 C.3     146  POP140     -0.0496
 18750 H7R        -25.9620   -11.9610    -6.6360 H       146  POP140      0.0268
 18751 H7S        -25.1930   -13.5370    -6.8940 H       146  POP140      0.0268
 18752 C28        -27.1990   -13.4430    -5.7650 C.3     146  POP140     -0.0348
 18753 H8R        -27.3400   -14.5410    -5.9280 H       146  POP140      0.0307
 18754 H8S        -28.1630   -12.8790    -5.8880 H       146  POP140      0.0307
 18755 C29        -26.6570   -13.2960    -4.3630 C.2     146  POP140     -0.0879
 18756 H91        -25.7100   -13.8940    -4.2350 H       146  POP140      0.0569
 18757 C210       -27.2560   -12.6560    -3.3370 C.2     146  POP140     -0.0879
 18758 H101       -26.7140   -12.7370    -2.3440 H       146  POP140      0.0569
 18759 C211       -28.6000   -11.9900    -3.2830 C.3     146  POP140     -0.0348
 18760 H11R       -29.2180   -12.1500    -4.1730 H       146  POP140      0.0307
 18761 H11S       -28.3510   -11.0070    -3.2560 H       146  POP140      0.0307
 18762 C212       -29.3080   -12.2380    -1.9260 C.3     146  POP140     -0.0496
 18763 H12R       -28.6300   -11.7990    -1.1760 H       146  POP140      0.0268
 18764 H12S       -29.6130   -13.3640    -1.7610 H       146  POP140      0.0268
 18765 C213       -30.6120   -11.3940    -1.8150 C.3     146  POP140     -0.0528
 18766 H13R       -30.3800   -10.2870    -1.7880 H       146  POP140      0.0265
 18767 H13S       -31.1740   -11.6150    -0.8830 H       146  POP140      0.0265
 18768 C214       -31.6620   -11.5920    -2.8840 C.3     146  POP140     -0.0530
 18769 H14R       -31.7400   -12.6880    -3.0870 H       146  POP140      0.0265
 18770 H14S       -31.4400   -11.1210    -3.8290 H       146  POP140      0.0265
 18771 C215       -32.9680   -10.9590    -2.3860 C.3     146  POP140     -0.0531
 18772 H15R       -32.8050    -9.9000    -2.0350 H       146  POP140      0.0265
 18773 H15S       -33.2680   -11.6480    -1.5020 H       146  POP140      0.0265
 18774 C216       -34.0730   -10.7870    -3.3850 C.3     146  POP140     -0.0533
 18775 H16R       -33.8670   -10.3560    -4.4010 H       146  POP140      0.0265
 18776 H16S       -34.8010   -10.1540    -2.8700 H       146  POP140      0.0265
 18777 C217       -34.6940   -12.1280    -3.6730 C.3     146  POP140     -0.0559
 18778 H17R       -34.9960   -12.5700    -2.7170 H       146  POP140      0.0263
 18779 H17S       -34.0110   -12.8940    -4.1350 H       146  POP140      0.0263
 18780 C218       -35.9570   -12.0480    -4.5650 C.3     146  POP140     -0.0653
 18781 H18R       -36.6130   -12.9160    -4.4320 H       146  POP140      0.0230
 18782 H18S       -35.6780   -11.8980    -5.6540 H       146  POP140      0.0230
 18783 H18T       -36.6580   -11.2430    -4.3220 H       146  POP140      0.0230
 18784 C33        -33.3130   -10.8540    -9.3880 C.3     146  POP140     -0.0441
 18785 H3X        -34.3860   -10.9620    -9.5620 H       146  POP140      0.0270
 18786 H3Y        -33.1070    -9.7840    -9.6210 H       146  POP140      0.0270
 18787 C34        -32.9640   -11.2050    -7.9380 C.3     146  POP140     -0.0526
 18788 H4X        -33.2560   -12.2610    -7.8910 H       146  POP140      0.0265
 18789 H4Y        -33.6890   -10.6660    -7.3260 H       146  POP140      0.0265
 18790 C35        -31.4700   -11.0050    -7.5100 C.3     146  POP140     -0.0530
 18791 H5X        -30.9540   -11.9040    -7.7390 H       146  POP140      0.0265
 18792 H5Y        -31.5700   -10.8620    -6.4060 H       146  POP140      0.0265
 18793 C36        -30.8240    -9.6910    -7.9630 C.3     146  POP140     -0.0531
 18794 H6X        -31.1210    -8.9010    -7.3250 H       146  POP140      0.0265
 18795 H6Y        -31.1950    -9.4710    -8.9560 H       146  POP140      0.0265
 18796 C37        -29.2810    -9.7930    -7.9430 C.3     146  POP140     -0.0531
 18797 H7X        -28.8050    -8.9020    -8.4620 H       146  POP140      0.0265
 18798 H7Y        -28.9440   -10.6730    -8.5350 H       146  POP140      0.0265
 18799 C38        -28.6400    -9.7550    -6.5380 C.3     146  POP140     -0.0531
 18800 H8X        -27.5780   -10.0820    -6.6420 H       146  POP140      0.0265
 18801 H8Y        -29.2280   -10.4050    -5.8290 H       146  POP140      0.0265
 18802 C39        -28.4990    -8.4130    -5.9960 C.3     146  POP140     -0.0531
 18803 H9X        -29.3540    -7.7540    -6.1360 H       146  POP140      0.0265
 18804 H9Y        -27.6480    -7.9370    -6.4790 H       146  POP140      0.0265
 18805 C310       -28.4290    -8.4140    -4.4230 C.3     146  POP140     -0.0531
 18806 H10X       -27.5530    -9.0020    -4.0700 H       146  POP140      0.0265
 18807 H10Y       -29.3080    -9.0810    -4.1060 H       146  POP140      0.0265
 18808 C311       -28.3370    -7.0680    -3.7420 C.3     146  POP140     -0.0531
 18809 H11X       -28.7880    -7.2300    -2.7210 H       146  POP140      0.0265
 18810 H11Y       -29.0080    -6.3510    -4.3560 H       146  POP140      0.0265
 18811 C312       -27.0310    -6.3540    -3.6640 C.3     146  POP140     -0.0531
 18812 H12X       -26.7420    -5.9630    -4.7290 H       146  POP140      0.0265
 18813 H12Y       -26.3250    -7.1060    -3.3100 H       146  POP140      0.0265
 18814 C313       -26.9360    -5.1590    -2.6800 C.3     146  POP140     -0.0531
 18815 H13X       -27.1440    -5.5180    -1.6320 H       146  POP140      0.0265
 18816 H13Y       -27.6940    -4.3830    -2.7880 H       146  POP140      0.0265
 18817 C314       -25.5340    -4.5710    -2.7410 C.3     146  POP140     -0.0533
 18818 H14X       -25.4880    -4.0970    -3.7570 H       146  POP140      0.0265
 18819 H14Y       -24.6820    -5.2550    -2.5830 H       146  POP140      0.0265
 18820 C315       -25.2940    -3.4190    -1.6200 C.3     146  POP140     -0.0559
 18821 H15X       -25.3960    -3.8600    -0.5790 H       146  POP140      0.0263
 18822 H15Y       -26.2500    -2.7630    -1.7010 H       146  POP140      0.0263
 18823 C316       -23.9560    -2.8060    -1.7320 C.3     146  POP140     -0.0653
 18824 H16X       -23.1110    -3.5280    -1.5840 H       146  POP140      0.0230
 18825 H16Y       -23.8000    -2.0650    -0.8810 H       146  POP140      0.0230
 18826 H16Z       -23.8060    -2.3240    -2.7320 H       146  POP140      0.0230
 18827 N          -30.3840     4.7800   -24.4600 N.3     147  POP141      0.2385
 18828 C12        -31.3970     5.3430   -23.5310 C.3     147  POP141     -0.0064
 18829 H12A       -32.4260     4.9840   -23.6670 H       147  POP141      0.0838
 18830 H12B       -31.5400     6.3560   -23.9010 H       147  POP141      0.0838
 18831 C13        -30.0480     3.3390   -24.0810 C.3     147  POP141     -0.0417
 18832 H13A       -30.9640     2.8380   -23.9530 H       147  POP141      0.0778
 18833 H13B       -29.4740     2.9050   -24.7860 H       147  POP141      0.0778
 18834 H13C       -29.4860     3.3550   -23.1520 H       147  POP141      0.0778
 18835 C14        -30.8290     4.7760   -25.8960 C.3     147  POP141     -0.0417
 18836 H14A       -31.7230     4.2130   -26.1170 H       147  POP141      0.0778
 18837 H14B       -30.9310     5.7690   -26.3310 H       147  POP141      0.0778
 18838 H14C       -30.1480     4.2110   -26.4600 H       147  POP141      0.0778
 18839 C15        -29.1450     5.5880   -24.3830 C.3     147  POP141     -0.0417
 18840 H15A       -28.7420     5.4750   -23.4120 H       147  POP141      0.0778
 18841 H15B       -29.3090     6.6580   -24.5380 H       147  POP141      0.0778
 18842 H15C       -28.4780     5.1680   -25.1970 H       147  POP141      0.0778
 18843 C11        -31.0860     5.2740   -22.0190 C.3     147  POP141      0.0954
 18844 H11A       -31.9780     5.8260   -21.5180 H       147  POP141      0.0618
 18845 H11B       -30.1100     5.8350   -21.8810 H       147  POP141      0.0618
 18846 P          -30.8090     3.5510   -20.0960 P.3     147  POP141      0.2645
 18847 O13        -30.3360     2.1900   -20.1300 O.co2   147  POP141     -0.5105
 18848 O14        -32.1650     3.8220   -19.3710 O.co2   147  POP141     -0.5105
 18849 O12        -30.9910     3.9190   -21.6050 O.3     147  POP141     -0.3154
 18850 O11        -29.6670     4.5100   -19.7040 O.3     147  POP141     -0.3181
 18851 C1         -28.7860     4.1700   -18.5890 C.3     147  POP141      0.0845
 18852 HA         -27.9550     4.8260   -18.7380 H       147  POP141      0.0591
 18853 HB         -28.3580     3.1840   -18.7510 H       147  POP141      0.0591
 18854 C2         -29.2960     4.1300   -17.1100 C.3     147  POP141      0.1155
 18855 HS         -30.0780     3.3270   -17.1870 H       147  POP141      0.0649
 18856 O21        -29.9450     5.4080   -16.9280 O.3     147  POP141     -0.3072
 18857 C21        -30.9870     5.5180   -16.1470 C.2     147  POP141      0.2626
 18858 O22        -31.6160     4.5980   -15.6410 O.2     147  POP141     -0.2650
 18859 C22        -31.3490     7.0250   -16.0290 C.3     147  POP141      0.0332
 18860 H2R        -32.2730     7.1620   -16.5830 H       147  POP141      0.0366
 18861 H2S        -30.5050     7.5720   -16.4640 H       147  POP141      0.0366
 18862 C3         -28.3150     3.7520   -15.9500 C.3     147  POP141      0.0860
 18863 HX         -27.5370     4.5630   -15.8890 H       147  POP141      0.0593
 18864 HY         -27.8070     2.8470   -16.2260 H       147  POP141      0.0593
 18865 O31        -28.8920     3.6360   -14.6220 O.3     147  POP141     -0.3125
 18866 C31        -29.3990     2.4260   -14.3440 C.2     147  POP141      0.2622
 18867 O32        -29.3470     1.4650   -15.0770 O.2     147  POP141     -0.2650
 18868 C32        -29.9100     2.3530   -12.8420 C.3     147  POP141      0.0332
 18869 H2X        -29.9790     3.4350   -12.5290 H       147  POP141      0.0366
 18870 H2Y        -29.1270     1.8790   -12.2130 H       147  POP141      0.0366
 18871 C23        -31.5490     7.4260   -14.5150 C.3     147  POP141     -0.0441
 18872 H3R        -31.6880     8.5130   -14.3500 H       147  POP141      0.0270
 18873 H3S        -30.6510     7.0540   -13.9980 H       147  POP141      0.0270
 18874 C24        -32.6460     6.6810   -13.6990 C.3     147  POP141     -0.0526
 18875 H4R        -32.3890     5.6020   -13.5310 H       147  POP141      0.0265
 18876 H4S        -33.5100     6.7870   -14.3820 H       147  POP141      0.0265
 18877 C25        -33.0250     7.3040   -12.3660 C.3     147  POP141     -0.0530
 18878 H5R        -33.9710     6.8580   -12.0990 H       147  POP141      0.0265
 18879 H5S        -33.1140     8.4090   -12.5810 H       147  POP141      0.0265
 18880 C26        -32.0030     7.0750   -11.2750 C.3     147  POP141     -0.0528
 18881 H6R        -31.1090     7.6900   -11.5490 H       147  POP141      0.0265
 18882 H6S        -31.8430     5.9150   -11.1820 H       147  POP141      0.0265
 18883 C27        -32.3850     7.6660    -9.8790 C.3     147  POP141     -0.0496
 18884 H7R        -33.4520     7.2650    -9.6560 H       147  POP141      0.0268
 18885 H7S        -32.3980     8.8000    -9.9830 H       147  POP141      0.0268
 18886 C28        -31.3780     7.1540    -8.8140 C.3     147  POP141     -0.0348
 18887 H8R        -30.4010     7.6260    -8.9510 H       147  POP141      0.0307
 18888 H8S        -31.1960     6.0840    -9.0080 H       147  POP141      0.0307
 18889 C29        -32.0930     7.4280    -7.4880 C.2     147  POP141     -0.0879
 18890 H91        -33.1440     7.1850    -7.4290 H       147  POP141      0.0569
 18891 C210       -31.4610     8.0650    -6.3870 C.2     147  POP141     -0.0879
 18892 H101       -31.9850     8.3310    -5.4720 H       147  POP141      0.0569
 18893 C211       -30.0270     8.4950    -6.4010 C.3     147  POP141     -0.0348
 18894 H11R       -29.9440     9.5730    -6.5960 H       147  POP141      0.0307
 18895 H11S       -29.4810     7.9920    -7.2000 H       147  POP141      0.0307
 18896 C212       -29.2190     8.0090    -5.1660 C.3     147  POP141     -0.0496
 18897 H12R       -28.3360     8.6790    -5.0940 H       147  POP141      0.0268
 18898 H12S       -28.9030     6.9660    -5.2240 H       147  POP141      0.0268
 18899 C213       -29.9340     8.1270    -3.7700 C.3     147  POP141     -0.0528
 18900 H13R       -30.6790     7.4510    -3.7780 H       147  POP141      0.0265
 18901 H13S       -30.3900     9.1300    -3.6210 H       147  POP141      0.0265
 18902 C214       -29.0010     7.9070    -2.5490 C.3     147  POP141     -0.0530
 18903 H14R       -28.1150     8.6700    -2.5990 H       147  POP141      0.0265
 18904 H14S       -28.6150     6.9210    -2.6080 H       147  POP141      0.0265
 18905 C215       -29.7380     7.8930    -1.1830 C.3     147  POP141     -0.0531
 18906 H15R       -30.4970     7.0790    -1.0650 H       147  POP141      0.0265
 18907 H15S       -30.3160     8.8620    -1.0720 H       147  POP141      0.0265
 18908 C216       -28.7620     7.9590     0.0070 C.3     147  POP141     -0.0533
 18909 H16R       -29.2090     8.0840     0.9970 H       147  POP141      0.0265
 18910 H16S       -28.0810     8.7960    -0.1770 H       147  POP141      0.0265
 18911 C217       -27.7500     6.8170     0.0890 C.3     147  POP141     -0.0559
 18912 H17R       -26.9870     6.7770    -0.7600 H       147  POP141      0.0263
 18913 H17S       -28.3640     5.8760    -0.0570 H       147  POP141      0.0263
 18914 C218       -26.9610     6.8970     1.4650 C.3     147  POP141     -0.0653
 18915 H18R       -26.4400     7.8170     1.5140 H       147  POP141      0.0230
 18916 H18S       -26.2200     6.0460     1.5990 H       147  POP141      0.0230
 18917 H18T       -27.5820     6.8350     2.3050 H       147  POP141      0.0230
 18918 C33        -31.2800     1.6650   -12.4780 C.3     147  POP141     -0.0441
 18919 H3X        -31.6270     1.2590   -13.4420 H       147  POP141      0.0270
 18920 H3Y        -32.0260     2.4030   -12.1460 H       147  POP141      0.0270
 18921 C34        -31.1380     0.3870   -11.5460 C.3     147  POP141     -0.0526
 18922 H4X        -30.1770    -0.0830   -11.8490 H       147  POP141      0.0265
 18923 H4Y        -31.9660    -0.3230   -11.5720 H       147  POP141      0.0265
 18924 C35        -31.0950     0.7930   -10.0980 C.3     147  POP141     -0.0530
 18925 H5X        -30.7770    -0.0220    -9.5070 H       147  POP141      0.0265
 18926 H5Y        -32.1470     1.0470    -9.9750 H       147  POP141      0.0265
 18927 C36        -30.2710     1.9780    -9.6650 C.3     147  POP141     -0.0531
 18928 H6X        -30.7420     2.9500    -9.8860 H       147  POP141      0.0265
 18929 H6Y        -29.2500     1.7990   -10.1410 H       147  POP141      0.0265
 18930 C37        -29.9660     1.9890    -8.2090 C.3     147  POP141     -0.0531
 18931 H7X        -29.0610     1.3650    -7.9720 H       147  POP141      0.0265
 18932 H7Y        -30.7230     1.5990    -7.5660 H       147  POP141      0.0265
 18933 C38        -29.6840     3.4610    -7.8020 C.3     147  POP141     -0.0531
 18934 H8X        -30.3550     4.1840    -8.2160 H       147  POP141      0.0265
 18935 H8Y        -28.6130     3.4970    -8.0770 H       147  POP141      0.0265
 18936 C39        -29.6390     3.7970    -6.2920 C.3     147  POP141     -0.0531
 18937 H9X        -30.5700     3.4820    -5.8950 H       147  POP141      0.0265
 18938 H9Y        -29.4900     4.8410    -6.0620 H       147  POP141      0.0265
 18939 C310       -28.6090     2.9360    -5.5420 C.3     147  POP141     -0.0531
 18940 H10X       -27.4910     3.1410    -5.8170 H       147  POP141      0.0265
 18941 H10Y       -28.7730     1.8330    -5.5320 H       147  POP141      0.0265
 18942 C311       -28.6830     3.3590    -4.0230 C.3     147  POP141     -0.0531
 18943 H11X       -28.8560     4.3560    -3.8610 H       147  POP141      0.0265
 18944 H11Y       -27.6560     3.1980    -3.6290 H       147  POP141      0.0265
 18945 C312       -29.5520     2.5070    -3.1370 C.3     147  POP141     -0.0531
 18946 H12X       -29.1810     2.5600    -2.0690 H       147  POP141      0.0265
 18947 H12Y       -29.3650     1.4750    -3.4290 H       147  POP141      0.0265
 18948 C313       -31.0600     2.7390    -3.1670 C.3     147  POP141     -0.0531
 18949 H13X       -31.4500     2.1980    -2.2300 H       147  POP141      0.0265
 18950 H13Y       -31.5100     2.3550    -4.0850 H       147  POP141      0.0265
 18951 C314       -31.4610     4.2470    -3.0090 C.3     147  POP141     -0.0533
 18952 H14X       -30.8670     4.8130    -3.7530 H       147  POP141      0.0265
 18953 H14Y       -31.2040     4.5960    -1.9810 H       147  POP141      0.0265
 18954 C315       -32.8620     4.6710    -3.2470 C.3     147  POP141     -0.0559
 18955 H15X       -32.8290     5.7680    -3.1290 H       147  POP141      0.0263
 18956 H15Y       -33.5350     4.3400    -2.3820 H       147  POP141      0.0263
 18957 C316       -33.4350     4.3360    -4.7070 C.3     147  POP141     -0.0653
 18958 H16X       -32.8520     4.9590    -5.4370 H       147  POP141      0.0230
 18959 H16Y       -34.5240     4.5680    -4.7320 H       147  POP141      0.0230
 18960 H16Z       -33.1580     3.2780    -4.9620 H       147  POP141      0.0230
 18961 N          -20.4520     4.3370   -20.9930 N.3     148  POP142      0.2385
 18962 C12        -21.6460     4.5230   -20.0560 C.3     148  POP142     -0.0064
 18963 H12A       -22.3500     3.7140   -20.2970 H       148  POP142      0.0838
 18964 H12B       -22.0160     5.5020   -20.2880 H       148  POP142      0.0838
 18965 C13        -19.7970     3.0070   -20.7310 C.3     148  POP142     -0.0417
 18966 H13A       -18.8680     2.8980   -21.2260 H       148  POP142      0.0778
 18967 H13B       -19.6870     2.8660   -19.6940 H       148  POP142      0.0778
 18968 H13C       -20.3970     2.1610   -21.1260 H       148  POP142      0.0778
 18969 C14        -20.9480     4.3100   -22.4420 C.3     148  POP142     -0.0417
 18970 H14A       -21.5310     5.1930   -22.6170 H       148  POP142      0.0778
 18971 H14B       -20.0840     4.2850   -23.0880 H       148  POP142      0.0778
 18972 H14C       -21.5550     3.4010   -22.5780 H       148  POP142      0.0778
 18973 C15        -19.4650     5.4360   -20.8660 C.3     148  POP142     -0.0417
 18974 H15A       -19.0620     5.5070   -19.8840 H       148  POP142      0.0778
 18975 H15B       -19.8380     6.3920   -21.1150 H       148  POP142      0.0778
 18976 H15C       -18.6700     5.3340   -21.5460 H       148  POP142      0.0778
 18977 C11        -21.3560     4.4650   -18.4830 C.3     148  POP142      0.0954
 18978 H11A       -22.3690     4.7490   -18.0360 H       148  POP142      0.0618
 18979 H11B       -20.6530     5.3280   -18.2670 H       148  POP142      0.0618
 18980 P          -21.6560     2.0260   -17.4180 P.3     148  POP142      0.2645
 18981 O13        -20.7050     0.9330   -17.1430 O.co2   148  POP142     -0.5105
 18982 O14        -22.7650     1.7530   -18.3400 O.co2   148  POP142     -0.5105
 18983 O12        -20.8380     3.2240   -17.9220 O.3     148  POP142     -0.3154
 18984 O11        -22.2410     2.5340   -16.0950 O.3     148  POP142     -0.3181
 18985 C1         -21.4220     3.3560   -15.2410 C.3     148  POP142      0.0845
 18986 HA         -21.1650     4.3690   -15.6460 H       148  POP142      0.0591
 18987 HB         -20.4050     2.8270   -15.0310 H       148  POP142      0.0591
 18988 C2         -22.2720     3.5190   -13.9020 C.3     148  POP142      0.1155
 18989 HS         -21.5930     3.9440   -13.1880 H       148  POP142      0.0649
 18990 O21        -22.8010     2.2710   -13.3940 O.3     148  POP142     -0.3072
 18991 C21        -21.9250     1.4720   -12.9000 C.2     148  POP142      0.2626
 18992 O22        -20.7870     1.8000   -12.6000 O.2     148  POP142     -0.2650
 18993 C22        -22.5170     0.1290   -12.5190 C.3     148  POP142      0.0332
 18994 H2R        -22.3000    -0.6950   -13.2900 H       148  POP142      0.0366
 18995 H2S        -23.5850     0.0440   -12.4280 H       148  POP142      0.0366
 18996 C3         -23.3480     4.5360   -14.2350 C.3     148  POP142      0.0860
 18997 HX         -24.0360     3.9990   -14.9650 H       148  POP142      0.0593
 18998 HY         -22.8850     5.2970   -14.8170 H       148  POP142      0.0593
 18999 O31        -23.9970     5.1640   -13.2200 O.3     148  POP142     -0.3125
 19000 C31        -25.2210     4.6120   -12.8830 C.2     148  POP142      0.2622
 19001 O32        -25.6930     3.5620   -13.2360 O.2     148  POP142     -0.2650
 19002 C32        -25.9560     5.6490   -12.0260 C.3     148  POP142      0.0332
 19003 H2X        -26.0070     6.5000   -12.7150 H       148  POP142      0.0366
 19004 H2Y        -25.4130     6.0270   -11.1600 H       148  POP142      0.0366
 19005 C23        -21.7980    -0.4050   -11.2910 C.3     148  POP142     -0.0441
 19006 H3R        -22.3450     0.1130   -10.5320 H       148  POP142      0.0270
 19007 H3S        -20.7370    -0.1520   -11.2180 H       148  POP142      0.0270
 19008 C24        -21.8810    -1.9520   -11.2410 C.3     148  POP142     -0.0526
 19009 H4R        -21.4700    -2.3850   -12.1900 H       148  POP142      0.0265
 19010 H4S        -22.9370    -2.4030   -11.0910 H       148  POP142      0.0265
 19011 C25        -20.9480    -2.5330   -10.1220 C.3     148  POP142     -0.0530
 19012 H5R        -19.8960    -2.3680   -10.4040 H       148  POP142      0.0265
 19013 H5S        -21.1340    -3.5980    -9.8650 H       148  POP142      0.0265
 19014 C26        -21.0360    -1.9010    -8.6640 C.3     148  POP142     -0.0528
 19015 H6R        -21.8790    -2.3910    -8.0500 H       148  POP142      0.0265
 19016 H6S        -21.2490    -0.7940    -8.7580 H       148  POP142      0.0265
 19017 C27        -19.8580    -2.1590    -7.7160 C.3     148  POP142     -0.0496
 19018 H7R        -18.9060    -1.8480    -8.2150 H       148  POP142      0.0268
 19019 H7S        -19.7530    -3.2360    -7.5140 H       148  POP142      0.0268
 19020 C28        -20.0930    -1.4440    -6.4370 C.3     148  POP142     -0.0348
 19021 H8R        -20.9700    -1.9180    -5.9000 H       148  POP142      0.0307
 19022 H8S        -20.3490    -0.3910    -6.5910 H       148  POP142      0.0307
 19023 C29        -18.8050    -1.5950    -5.6310 C.2     148  POP142     -0.0879
 19024 H91        -17.9210    -1.2280    -6.1660 H       148  POP142      0.0569
 19025 C210       -18.6260    -2.0470    -4.3770 C.2     148  POP142     -0.0879
 19026 H101       -17.6230    -2.1770    -4.0990 H       148  POP142      0.0569
 19027 C211       -19.6750    -2.5260    -3.3430 C.3     148  POP142     -0.0348
 19028 H11R       -19.4330    -3.4490    -2.8380 H       148  POP142      0.0307
 19029 H11S       -20.5650    -2.7820    -3.8520 H       148  POP142      0.0307
 19030 C212       -19.8960    -1.2690    -2.3760 C.3     148  POP142     -0.0496
 19031 H12R       -18.9180    -0.9140    -1.9470 H       148  POP142      0.0268
 19032 H12S       -20.5150    -1.5870    -1.4530 H       148  POP142      0.0268
 19033 C213       -20.5960    -0.0860    -3.0290 C.3     148  POP142     -0.0528
 19034 H13R       -21.5110    -0.3210    -3.5360 H       148  POP142      0.0265
 19035 H13S       -19.9080     0.3970    -3.8130 H       148  POP142      0.0265
 19036 C214       -21.0070     1.0200    -2.0890 C.3     148  POP142     -0.0530
 19037 H14R       -21.5610     0.5650    -1.2910 H       148  POP142      0.0265
 19038 H14S       -21.6220     1.7910    -2.6820 H       148  POP142      0.0265
 19039 C215       -19.6960     1.7340    -1.6250 C.3     148  POP142     -0.0531
 19040 H15R       -19.1790     2.2670    -2.5100 H       148  POP142      0.0265
 19041 H15S       -18.9730     1.1770    -1.1090 H       148  POP142      0.0265
 19042 C216       -20.0030     2.8510    -0.6060 C.3     148  POP142     -0.0533
 19043 H16R       -20.3260     2.4810     0.4060 H       148  POP142      0.0265
 19044 H16S       -20.7950     3.4870    -0.9300 H       148  POP142      0.0265
 19045 C217       -18.6900     3.5270    -0.3140 C.3     148  POP142     -0.0559
 19046 H17R       -18.3160     3.9750    -1.2590 H       148  POP142      0.0263
 19047 H17S       -17.8980     2.7650    -0.0440 H       148  POP142      0.0263
 19048 C218       -18.7670     4.5850     0.7080 C.3     148  POP142     -0.0653
 19049 H18R       -17.9220     5.1830     0.8100 H       148  POP142      0.0230
 19050 H18S       -19.0320     4.2800     1.7230 H       148  POP142      0.0230
 19051 H18T       -19.5420     5.3420     0.4120 H       148  POP142      0.0230
 19052 C33        -27.4090     5.1830   -11.6140 C.3     148  POP142     -0.0441
 19053 H3X        -27.4420     4.3340   -10.9300 H       148  POP142      0.0270
 19054 H3Y        -27.9180     4.8660   -12.5940 H       148  POP142      0.0270
 19055 C34        -28.2130     6.3330   -10.8930 C.3     148  POP142     -0.0526
 19056 H4X        -29.1510     5.8310   -10.4750 H       148  POP142      0.0265
 19057 H4Y        -28.5820     7.1120   -11.6090 H       148  POP142      0.0265
 19058 C35        -27.5470     7.0340    -9.6870 C.3     148  POP142     -0.0530
 19059 H5X        -28.1550     7.9290    -9.5730 H       148  POP142      0.0265
 19060 H5Y        -26.5790     7.3140   -10.1160 H       148  POP142      0.0265
 19061 C36        -27.3850     6.2680    -8.4030 C.3     148  POP142     -0.0531
 19062 H6X        -26.8980     5.2460    -8.6400 H       148  POP142      0.0265
 19063 H6Y        -28.3900     6.1340    -7.9740 H       148  POP142      0.0265
 19064 C37        -26.5010     7.0550    -7.4200 C.3     148  POP142     -0.0531
 19065 H7X        -27.1140     7.8730    -6.9800 H       148  POP142      0.0265
 19066 H7Y        -25.6070     7.4740    -7.9460 H       148  POP142      0.0265
 19067 C38        -25.9980     6.1930    -6.2980 C.3     148  POP142     -0.0531
 19068 H8X        -25.1830     5.5280    -6.6850 H       148  POP142      0.0265
 19069 H8Y        -26.8770     5.5870    -5.8250 H       148  POP142      0.0265
 19070 C39        -25.3740     6.9030    -5.1080 C.3     148  POP142     -0.0531
 19071 H9X        -26.0840     7.5760    -4.5620 H       148  POP142      0.0265
 19072 H9Y        -24.5090     7.6340    -5.3620 H       148  POP142      0.0265
 19073 C310       -24.6130     6.0390    -4.0450 C.3     148  POP142     -0.0531
 19074 H10X       -23.9830     6.6640    -3.4370 H       148  POP142      0.0265
 19075 H10Y       -23.8220     5.4200    -4.5730 H       148  POP142      0.0265
 19076 C311       -25.5960     5.1520    -3.2300 C.3     148  POP142     -0.0531
 19077 H11X       -26.3020     4.6600    -3.9350 H       148  POP142      0.0265
 19078 H11Y       -26.0450     5.9070    -2.6210 H       148  POP142      0.0265
 19079 C312       -25.0640     4.0330    -2.2930 C.3     148  POP142     -0.0531
 19080 H12X       -23.9990     4.3530    -2.1850 H       148  POP142      0.0265
 19081 H12Y       -25.0230     3.1080    -2.8840 H       148  POP142      0.0265
 19082 C313       -25.8500     3.9600    -0.9490 C.3     148  POP142     -0.0531
 19083 H13X       -26.9380     3.7800    -1.2910 H       148  POP142      0.0265
 19084 H13Y       -25.8120     4.9950    -0.5010 H       148  POP142      0.0265
 19085 C314       -25.4210     2.7570    -0.2020 C.3     148  POP142     -0.0533
 19086 H14X       -25.8720     1.9040    -0.7360 H       148  POP142      0.0265
 19087 H14Y       -25.8040     2.8350     0.9020 H       148  POP142      0.0265
 19088 C315       -23.9090     2.4020    -0.0620 C.3     148  POP142     -0.0559
 19089 H15X       -23.4360     3.2860     0.4520 H       148  POP142      0.0263
 19090 H15Y       -23.4960     2.1890    -1.0330 H       148  POP142      0.0263
 19091 C316       -23.7670     1.2200     0.8630 C.3     148  POP142     -0.0653
 19092 H16X       -24.0520     1.4890     1.8690 H       148  POP142      0.0230
 19093 H16Y       -22.6800     0.9380     0.8990 H       148  POP142      0.0230
 19094 H16Z       -24.4190     0.3710     0.5150 H       148  POP142      0.0230
 19095 N           -7.4240    -5.6500   -18.7860 N.3     149  POP143      0.2385
 19096 C12         -7.6320    -4.7010   -17.6600 C.3     149  POP143     -0.0064
 19097 H12A        -7.0200    -3.7850   -17.7530 H       149  POP143      0.0838
 19098 H12B        -7.2510    -5.2210   -16.8140 H       149  POP143      0.0838
 19099 C13         -8.2380    -6.9110   -18.6290 C.3     149  POP143     -0.0417
 19100 H13A        -8.1570    -7.6260   -19.4340 H       149  POP143      0.0778
 19101 H13B        -7.8290    -7.4110   -17.7830 H       149  POP143      0.0778
 19102 H13C        -9.2680    -6.7300   -18.3880 H       149  POP143      0.0778
 19103 C14         -7.9650    -5.0510   -20.0730 C.3     149  POP143     -0.0417
 19104 H14A        -7.9770    -5.8450   -20.8900 H       149  POP143      0.0778
 19105 H14B        -8.9580    -4.7240   -20.0010 H       149  POP143      0.0778
 19106 H14C        -7.3390    -4.3080   -20.4700 H       149  POP143      0.0778
 19107 C15         -6.0490    -6.1230   -18.9840 C.3     149  POP143     -0.0417
 19108 H15A        -5.5760    -5.4050   -19.6280 H       149  POP143      0.0778
 19109 H15B        -6.0100    -7.0650   -19.5420 H       149  POP143      0.0778
 19110 H15C        -5.5370    -6.3220   -17.9900 H       149  POP143      0.0778
 19111 C11         -9.0870    -4.3760   -17.3990 C.3     149  POP143      0.0954
 19112 H11A        -9.6470    -3.8950   -18.2070 H       149  POP143      0.0618
 19113 H11B        -8.9400    -3.5900   -16.6440 H       149  POP143      0.0618
 19114 P          -11.2440    -5.1430   -16.2660 P.3     149  POP143      0.2645
 19115 O13        -11.7230    -6.4360   -15.6540 O.co2   149  POP143     -0.5105
 19116 O14        -11.9510    -4.6570   -17.4420 O.co2   149  POP143     -0.5105
 19117 O12         -9.7550    -5.4090   -16.6970 O.3     149  POP143     -0.3154
 19118 O11        -11.0460    -4.0940   -15.0900 O.3     149  POP143     -0.3181
 19119 C1         -11.4760    -2.7420   -14.9950 C.3     149  POP143      0.0845
 19120 HA         -12.4930    -2.7230   -14.5510 H       149  POP143      0.0591
 19121 HB         -11.5020    -2.2470   -15.9630 H       149  POP143      0.0591
 19122 C2         -10.5600    -1.9570   -13.9680 C.3     149  POP143      0.1155
 19123 HS          -9.5830    -2.4150   -14.1190 H       149  POP143      0.0649
 19124 O21        -11.0840    -2.2310   -12.6480 O.3     149  POP143     -0.3072
 19125 C21        -10.1940    -2.0640   -11.6750 C.2     149  POP143      0.2626
 19126 O22         -8.9960    -1.8460   -11.8520 O.2     149  POP143     -0.2650
 19127 C22        -10.9110    -2.1640   -10.2750 C.3     149  POP143      0.0332
 19128 H2R        -11.5970    -1.2980   -10.3370 H       149  POP143      0.0366
 19129 H2S        -10.0520    -1.8190    -9.5710 H       149  POP143      0.0366
 19130 C3         -10.5700    -0.4410   -14.3610 C.3     149  POP143      0.0860
 19131 HX         -10.2150    -0.2830   -15.4150 H       149  POP143      0.0593
 19132 HY          -9.9290     0.1800   -13.7610 H       149  POP143      0.0593
 19133 O31        -11.9850    -0.0220   -14.3070 O.3     149  POP143     -0.3125
 19134 C31        -12.3100     0.3360   -13.0770 C.2     149  POP143      0.2622
 19135 O32        -11.4660     0.5740   -12.1700 O.2     149  POP143     -0.2650
 19136 C32        -13.7820     0.1550   -12.8970 C.3     149  POP143      0.0332
 19137 H2X        -13.8870    -0.9730   -12.8010 H       149  POP143      0.0366
 19138 H2Y        -14.2690     0.3890   -13.8740 H       149  POP143      0.0366
 19139 C23        -11.5490    -3.5160    -9.9250 C.3     149  POP143     -0.0441
 19140 H3R        -10.7250    -4.3110   -10.0870 H       149  POP143      0.0270
 19141 H3S        -12.3910    -3.7630   -10.5400 H       149  POP143      0.0270
 19142 C24        -12.1030    -3.4350    -8.5480 C.3     149  POP143     -0.0526
 19143 H4R        -12.9870    -2.7300    -8.4440 H       149  POP143      0.0265
 19144 H4S        -11.3840    -2.9970    -7.7940 H       149  POP143      0.0265
 19145 C25        -12.4660    -4.8680    -8.1050 C.3     149  POP143     -0.0530
 19146 H5R        -11.5950    -5.4870    -8.2470 H       149  POP143      0.0265
 19147 H5S        -13.2390    -5.3520    -8.6550 H       149  POP143      0.0265
 19148 C26        -12.8230    -5.0180    -6.6370 C.3     149  POP143     -0.0528
 19149 H6R        -13.6740    -4.4160    -6.3830 H       149  POP143      0.0265
 19150 H6S        -12.0650    -4.6520    -6.0000 H       149  POP143      0.0265
 19151 C27        -13.0590    -6.5340    -6.2500 C.3     149  POP143     -0.0496
 19152 H7R        -12.4140    -7.0940    -6.9690 H       149  POP143      0.0268
 19153 H7S        -14.1680    -6.7850    -6.3410 H       149  POP143      0.0268
 19154 C28        -12.6550    -6.8320    -4.7800 C.3     149  POP143     -0.0348
 19155 H8R        -12.5760    -7.8310    -4.7010 H       149  POP143      0.0307
 19156 H8S        -13.5040    -6.5000    -4.0910 H       149  POP143      0.0307
 19157 C29        -11.3310    -6.2380    -4.3690 C.2     149  POP143     -0.0879
 19158 H91        -10.5810    -6.2760    -5.1890 H       149  POP143      0.0569
 19159 C210       -11.0640    -5.3970    -3.3670 C.2     149  POP143     -0.0879
 19160 H101       -10.1840    -4.7730    -3.3430 H       149  POP143      0.0569
 19161 C211       -12.0400    -4.9100    -2.2880 C.3     149  POP143     -0.0348
 19162 H11R       -12.6650    -5.8410    -2.1360 H       149  POP143      0.0307
 19163 H11S       -12.6750    -4.1620    -2.8110 H       149  POP143      0.0307
 19164 C212       -11.3440    -4.3860    -0.9930 C.3     149  POP143     -0.0496
 19165 H12R       -11.0550    -3.3520    -1.2870 H       149  POP143      0.0268
 19166 H12S       -10.4110    -4.8400    -0.7210 H       149  POP143      0.0268
 19167 C213       -12.2740    -4.3900     0.2680 C.3     149  POP143     -0.0528
 19168 H13R       -12.2100    -5.3810     0.6490 H       149  POP143      0.0265
 19169 H13S       -13.3590    -4.2570    -0.0350 H       149  POP143      0.0265
 19170 C214       -11.7680    -3.4770     1.3390 C.3     149  POP143     -0.0530
 19171 H14R       -10.6460    -3.4460     1.3910 H       149  POP143      0.0265
 19172 H14S       -12.2920    -3.7300     2.3500 H       149  POP143      0.0265
 19173 C215       -12.0290    -1.9680     1.0060 C.3     149  POP143     -0.0531
 19174 H15R       -13.0810    -1.9400     0.5720 H       149  POP143      0.0265
 19175 H15S       -11.3240    -1.6480     0.1240 H       149  POP143      0.0265
 19176 C216       -11.9140    -0.9850     2.1550 C.3     149  POP143     -0.0533
 19177 H16R       -10.8630    -0.9350     2.5090 H       149  POP143      0.0265
 19178 H16S       -12.4790    -1.4310     3.0070 H       149  POP143      0.0265
 19179 C217       -12.4630     0.4300     1.8870 C.3     149  POP143     -0.0559
 19180 H17R       -12.4050     1.0400     2.7980 H       149  POP143      0.0263
 19181 H17S       -13.4830     0.4090     1.5020 H       149  POP143      0.0263
 19182 C218       -11.5970     1.2000     0.8580 C.3     149  POP143     -0.0653
 19183 H18R       -10.6640     1.5540     1.1560 H       149  POP143      0.0230
 19184 H18S       -12.1840     2.1830     0.4570 H       149  POP143      0.0230
 19185 H18T       -11.5150     0.5110    -0.0940 H       149  POP143      0.0230
 19186 C33        -14.3420     0.8720   -11.6650 C.3     149  POP143     -0.0441
 19187 H3X        -14.2700     1.9720   -11.7080 H       149  POP143      0.0270
 19188 H3Y        -13.8000     0.5990   -10.7560 H       149  POP143      0.0270
 19189 C34        -15.8190     0.4930   -11.4410 C.3     149  POP143     -0.0526
 19190 H4X        -16.0160    -0.6500   -11.3730 H       149  POP143      0.0265
 19191 H4Y        -16.4330     0.6920   -12.4190 H       149  POP143      0.0265
 19192 C35        -16.5380     1.2720   -10.2910 C.3     149  POP143     -0.0530
 19193 H5X        -17.6320     1.0890   -10.4920 H       149  POP143      0.0265
 19194 H5Y        -16.2990     2.3460   -10.3380 H       149  POP143      0.0265
 19195 C36        -16.0490     0.7050    -8.9650 C.3     149  POP143     -0.0531
 19196 H6X        -15.0600     1.0530    -8.7950 H       149  POP143      0.0265
 19197 H6Y        -15.9470    -0.4210    -8.9750 H       149  POP143      0.0265
 19198 C37        -16.9250     0.9390    -7.7320 C.3     149  POP143     -0.0531
 19199 H7X        -16.4030     0.6850    -6.7740 H       149  POP143      0.0265
 19200 H7Y        -17.9260     0.3410    -7.9050 H       149  POP143      0.0265
 19201 C38        -17.3590     2.4150    -7.5060 C.3     149  POP143     -0.0531
 19202 H8X        -17.8550     2.8230    -8.4270 H       149  POP143      0.0265
 19203 H8Y        -16.4120     3.0100    -7.3890 H       149  POP143      0.0265
 19204 C39        -18.0680     2.8090    -6.2440 C.3     149  POP143     -0.0531
 19205 H9X        -19.1030     2.3980    -6.2540 H       149  POP143      0.0265
 19206 H9Y        -18.1420     3.9550    -6.2500 H       149  POP143      0.0265
 19207 C310       -17.4080     2.3110    -5.0040 C.3     149  POP143     -0.0531
 19208 H10X       -17.4180     1.1750    -4.8700 H       149  POP143      0.0265
 19209 H10Y       -18.0120     2.6260    -4.1130 H       149  POP143      0.0265
 19210 C311       -15.9010     2.8140    -4.8380 C.3     149  POP143     -0.0531
 19211 H11X       -15.7380     3.9010    -4.8580 H       149  POP143      0.0265
 19212 H11Y       -15.3670     2.3350    -5.6720 H       149  POP143      0.0265
 19213 C312       -15.2380     2.3820    -3.5190 C.3     149  POP143     -0.0531
 19214 H12X       -15.1080     1.2880    -3.5080 H       149  POP143      0.0265
 19215 H12Y       -15.9060     2.7390    -2.6980 H       149  POP143      0.0265
 19216 C313       -13.9560     3.1790    -3.2600 C.3     149  POP143     -0.0531
 19217 H13X       -14.2470     4.2440    -3.2750 H       149  POP143      0.0265
 19218 H13Y       -13.1490     3.1170    -4.0670 H       149  POP143      0.0265
 19219 C314       -13.3560     3.0460    -1.8760 C.3     149  POP143     -0.0533
 19220 H14X       -12.8860     2.0490    -1.7110 H       149  POP143      0.0265
 19221 H14Y       -14.2550     3.0120    -1.2480 H       149  POP143      0.0265
 19222 C315       -12.3330     4.1490    -1.4330 C.3     149  POP143     -0.0559
 19223 H15X       -12.5350     4.5190    -0.3650 H       149  POP143      0.0263
 19224 H15Y       -12.5350     5.0510    -2.0570 H       149  POP143      0.0263
 19225 C316       -10.8680     3.7760    -1.6400 C.3     149  POP143     -0.0653
 19226 H16X       -10.1190     4.3530    -0.9860 H       149  POP143      0.0230
 19227 H16Y       -10.5780     3.7570    -2.6950 H       149  POP143      0.0230
 19228 H16Z       -10.6080     2.7560    -1.3350 H       149  POP143      0.0230
 19229 N          -25.0830    -1.6710   -18.6920 N.3     150  POP144      0.2385
 19230 C12        -25.7600    -2.4470   -17.5150 C.3     150  POP144     -0.0064
 19231 H12A       -26.7070    -2.9460   -17.8670 H       150  POP144      0.0838
 19232 H12B       -26.1920    -1.7910   -16.8320 H       150  POP144      0.0838
 19233 C13        -26.1260    -0.7800   -19.1490 C.3     150  POP144     -0.0417
 19234 H13A       -25.8120    -0.2070   -19.9470 H       150  POP144      0.0778
 19235 H13B       -27.0190    -1.2810   -19.5780 H       150  POP144      0.0778
 19236 H13C       -26.5010    -0.2620   -18.3460 H       150  POP144      0.0778
 19237 C14        -23.9430    -0.8680   -18.2140 C.3     150  POP144     -0.0417
 19238 H14A       -24.1930    -0.1020   -17.4940 H       150  POP144      0.0778
 19239 H14B       -23.2570    -1.4990   -17.6770 H       150  POP144      0.0778
 19240 H14C       -23.5460    -0.3490   -19.0710 H       150  POP144      0.0778
 19241 C15        -24.5830    -2.4790   -19.8640 C.3     150  POP144     -0.0417
 19242 H15A       -24.2920    -1.9340   -20.7050 H       150  POP144      0.0778
 19243 H15B       -25.4600    -3.1590   -20.1480 H       150  POP144      0.0778
 19244 H15C       -23.6820    -3.1040   -19.6860 H       150  POP144      0.0778
 19245 C11        -25.0250    -3.6030   -16.8060 C.3     150  POP144      0.0954
 19246 H11A       -25.4740    -3.7550   -15.8040 H       150  POP144      0.0618
 19247 H11B       -23.9970    -3.2610   -16.6420 H       150  POP144      0.0618
 19248 P          -26.1990    -5.5840   -18.1060 P.3     150  POP144      0.2645
 19249 O13        -25.9060    -6.9780   -18.3440 O.co2   150  POP144     -0.5105
 19250 O14        -26.7110    -4.9260   -19.3410 O.co2   150  POP144     -0.5105
 19251 O12        -24.9720    -4.7330   -17.6300 O.3     150  POP144     -0.3154
 19252 O11        -27.2180    -5.4250   -16.9280 O.3     150  POP144     -0.3181
 19253 C1         -27.0110    -5.9880   -15.6200 C.3     150  POP144      0.0845
 19254 HA         -25.9490    -6.0110   -15.4010 H       150  POP144      0.0591
 19255 HB         -27.3600    -7.0420   -15.5480 H       150  POP144      0.0591
 19256 C2         -27.8110    -5.1350   -14.4550 C.3     150  POP144      0.1155
 19257 HS         -28.8240    -4.8950   -14.8510 H       150  POP144      0.0649
 19258 O21        -27.0890    -3.8360   -14.2520 O.3     150  POP144     -0.3072
 19259 C21        -27.6680    -3.0740   -13.3190 C.2     150  POP144      0.2626
 19260 O22        -28.7090    -3.2800   -12.7800 O.2     150  POP144     -0.2650
 19261 C22        -26.7090    -1.9570   -12.9190 C.3     150  POP144      0.0332
 19262 H2R        -26.5650    -1.3080   -13.8560 H       150  POP144      0.0366
 19263 H2S        -25.6900    -2.4010   -12.7850 H       150  POP144      0.0366
 19264 C3         -27.8280    -5.9780   -13.1960 C.3     150  POP144      0.0860
 19265 HX         -28.3700    -6.8950   -13.5360 H       150  POP144      0.0593
 19266 HY         -28.3580    -5.5300   -12.3840 H       150  POP144      0.0593
 19267 O31        -26.5190    -6.3090   -12.6350 O.3     150  POP144     -0.3125
 19268 C31        -26.5720    -7.2740   -11.6700 C.2     150  POP144      0.2622
 19269 O32        -27.6480    -7.6870   -11.1830 O.2     150  POP144     -0.2650
 19270 C32        -25.2300    -7.6150   -11.2660 C.3     150  POP144      0.0332
 19271 H2X        -24.7050    -6.6260   -11.0250 H       150  POP144      0.0366
 19272 H2Y        -24.6850    -8.0660   -12.1740 H       150  POP144      0.0366
 19273 C23        -27.1170    -1.1910   -11.6890 C.3     150  POP144     -0.0441
 19274 H3R        -27.5940    -1.8300   -10.9300 H       150  POP144      0.0270
 19275 H3S        -27.9590    -0.4230   -11.9690 H       150  POP144      0.0270
 19276 C24        -26.0540    -0.3830   -10.9720 C.3     150  POP144     -0.0526
 19277 H4R        -25.8990     0.5300   -11.6200 H       150  POP144      0.0265
 19278 H4S        -25.0550    -0.9180   -10.8080 H       150  POP144      0.0265
 19279 C25        -26.5860     0.1600    -9.7110 C.3     150  POP144     -0.0530
 19280 H5R        -26.3590    -0.6320    -8.8700 H       150  POP144      0.0265
 19281 H5S        -27.7310     0.2930    -9.7860 H       150  POP144      0.0265
 19282 C26        -26.0670     1.5070    -9.3470 C.3     150  POP144     -0.0528
 19283 H6R        -26.2120     1.5780    -8.2700 H       150  POP144      0.0265
 19284 H6S        -26.5150     2.3720    -9.8880 H       150  POP144      0.0265
 19285 C27        -24.5290     1.5970    -9.5120 C.3     150  POP144     -0.0496
 19286 H7R        -24.2610     1.3400   -10.5810 H       150  POP144      0.0268
 19287 H7S        -24.0550     0.7950    -8.8810 H       150  POP144      0.0268
 19288 C28        -23.9270     2.9810    -9.2360 C.3     150  POP144     -0.0348
 19289 H8R        -24.3760     3.3500    -8.2750 H       150  POP144      0.0307
 19290 H8S        -24.2910     3.7010    -9.9860 H       150  POP144      0.0307
 19291 C29        -22.4350     2.8720    -9.1920 C.2     150  POP144     -0.0879
 19292 H91        -21.8720     2.6730   -10.2210 H       150  POP144      0.0569
 19293 C210       -21.7520     2.5910    -8.0740 C.2     150  POP144     -0.0879
 19294 H101       -20.6830     2.4870    -8.0800 H       150  POP144      0.0569
 19295 C211       -22.4410     2.5550    -6.7060 C.3     150  POP144     -0.0348
 19296 H11R       -23.1960     3.3210    -6.6900 H       150  POP144      0.0307
 19297 H11S       -21.6860     2.9650    -5.9390 H       150  POP144      0.0307
 19298 C212       -22.8670     1.1490    -6.2230 C.3     150  POP144     -0.0496
 19299 H12R       -22.0410     0.5480    -5.8960 H       150  POP144      0.0268
 19300 H12S       -23.5370     0.6130    -6.9270 H       150  POP144      0.0268
 19301 C213       -23.8850     1.3770    -4.9990 C.3     150  POP144     -0.0528
 19302 H13R       -24.4660     2.2980    -5.1670 H       150  POP144      0.0265
 19303 H13S       -23.1560     1.6620    -4.1680 H       150  POP144      0.0265
 19304 C214       -24.6840     0.1510    -4.6920 C.3     150  POP144     -0.0530
 19305 H14R       -25.0370     0.1210    -3.6640 H       150  POP144      0.0265
 19306 H14S       -23.9390    -0.7490    -4.6680 H       150  POP144      0.0265
 19307 C215       -25.9820    -0.0860    -5.5550 C.3     150  POP144     -0.0531
 19308 H15R       -25.7870    -0.0680    -6.6660 H       150  POP144      0.0265
 19309 H15S       -26.6730     0.7240    -5.5130 H       150  POP144      0.0265
 19310 C216       -26.7880    -1.3090    -4.9830 C.3     150  POP144     -0.0533
 19311 H16R       -26.9870    -1.1890    -3.8370 H       150  POP144      0.0265
 19312 H16S       -26.2250    -2.2790    -5.1280 H       150  POP144      0.0265
 19313 C217       -28.1790    -1.4570    -5.5570 C.3     150  POP144     -0.0559
 19314 H17R       -28.0320    -1.2400    -6.6410 H       150  POP144      0.0263
 19315 H17S       -28.8540    -0.6190    -5.2350 H       150  POP144      0.0263
 19316 C218       -28.8990    -2.7630    -5.2990 C.3     150  POP144     -0.0653
 19317 H18R       -28.9380    -3.1120    -4.2800 H       150  POP144      0.0230
 19318 H18S       -28.2450    -3.4440    -5.9390 H       150  POP144      0.0230
 19319 H18T       -29.8820    -2.6960    -5.7820 H       150  POP144      0.0230
 19320 C33        -25.2610    -8.6110   -10.0600 C.3     150  POP144     -0.0441
 19321 H3X        -24.3620    -9.2840   -10.2780 H       150  POP144      0.0270
 19322 H3Y        -26.1930    -9.2250    -9.9350 H       150  POP144      0.0270
 19323 C34        -24.8780    -7.9370    -8.7450 C.3     150  POP144     -0.0526
 19324 H4X        -25.6410    -7.2150    -8.5560 H       150  POP144      0.0265
 19325 H4Y        -23.8930    -7.5260    -8.8910 H       150  POP144      0.0265
 19326 C35        -24.7720    -8.9530    -7.5980 C.3     150  POP144     -0.0530
 19327 H5X        -24.0110    -9.6300    -7.9240 H       150  POP144      0.0265
 19328 H5Y        -25.7020    -9.5180    -7.3090 H       150  POP144      0.0265
 19329 C36        -24.2050    -8.3120    -6.3050 C.3     150  POP144     -0.0531
 19330 H6X        -24.7970    -7.4360    -6.0130 H       150  POP144      0.0265
 19331 H6Y        -23.1510    -8.0370    -6.4800 H       150  POP144      0.0265
 19332 C37        -24.2890    -9.2590    -5.0480 C.3     150  POP144     -0.0531
 19333 H7X        -23.6720   -10.1970    -5.1160 H       150  POP144      0.0265
 19334 H7Y        -25.3640    -9.5560    -4.8580 H       150  POP144      0.0265
 19335 C38        -23.7520    -8.6920    -3.7530 C.3     150  POP144     -0.0531
 19336 H8X        -24.1590    -7.6620    -3.5620 H       150  POP144      0.0265
 19337 H8Y        -22.6610    -8.4840    -3.9280 H       150  POP144      0.0265
 19338 C39        -23.9190    -9.6050    -2.5000 C.3     150  POP144     -0.0531
 19339 H9X        -23.1880    -9.2650    -1.7590 H       150  POP144      0.0265
 19340 H9Y        -23.7870   -10.7430    -2.7580 H       150  POP144      0.0265
 19341 C310       -25.3430    -9.3980    -1.8180 C.3     150  POP144     -0.0531
 19342 H10X       -26.1190    -9.8810    -2.4340 H       150  POP144      0.0265
 19343 H10Y       -25.6110    -8.2950    -1.8070 H       150  POP144      0.0265
 19344 C311       -25.3930    -9.9950    -0.3860 C.3     150  POP144     -0.0531
 19345 H11X       -24.6160    -9.5770     0.2160 H       150  POP144      0.0265
 19346 H11Y       -25.2170   -11.0240    -0.4460 H       150  POP144      0.0265
 19347 C312       -26.7540    -9.8690     0.3090 C.3     150  POP144     -0.0531
 19348 H12X       -27.5610   -10.2940    -0.2600 H       150  POP144      0.0265
 19349 H12Y       -27.0310    -8.7880     0.5340 H       150  POP144      0.0265
 19350 C313       -26.8450   -10.4930     1.7170 C.3     150  POP144     -0.0531
 19351 H13X       -25.9940   -10.0920     2.4230 H       150  POP144      0.0265
 19352 H13Y       -26.7560   -11.6240     1.6490 H       150  POP144      0.0265
 19353 C314       -28.1190   -10.1770     2.4320 C.3     150  POP144     -0.0533
 19354 H14X       -29.0150   -10.7930     2.0360 H       150  POP144      0.0265
 19355 H14Y       -28.4470    -9.0570     2.2130 H       150  POP144      0.0265
 19356 C315       -28.1650   -10.3330     3.9280 C.3     150  POP144     -0.0559
 19357 H15X       -27.4190    -9.6820     4.4630 H       150  POP144      0.0263
 19358 H15Y       -27.9030   -11.4180     4.0590 H       150  POP144      0.0263
 19359 C316       -29.4620    -9.9500     4.5990 C.3     150  POP144     -0.0653
 19360 H16X       -30.3290    -9.8570     3.8570 H       150  POP144      0.0230
 19361 H16Y       -29.4240    -8.9050     5.0650 H       150  POP144      0.0230
 19362 H16Z       -29.8230   -10.7730     5.2990 H       150  POP144      0.0230
 19363 OH2        -21.9280   -18.2150    48.4030 O.3     151  TIP1       -0.4105
 19364 H1         -21.0960   -18.6290    48.6340 H       151  TIP1        0.2052
 19365 H2         -22.2120   -17.7800    49.2070 H       151  TIP1        0.2052
 19366 OH2          6.3200    -6.9650    34.8520 O.3     152  TIP2       -0.4105
 19367 H1           7.1330    -6.4690    34.7570 H       152  TIP2        0.2052
 19368 H2           6.5420    -7.8490    34.5580 H       152  TIP2        0.2052
 19369 OH2        -27.8110   -26.8280    36.4740 O.3     153  TIP3       -0.4105
 19370 H1         -28.4380   -26.2720    36.0120 H       153  TIP3        0.2052
 19371 H2         -28.3350   -27.5550    36.8090 H       153  TIP3        0.2052
 19372 OH2        -24.0660    23.2240    55.2020 O.3     154  TIP4       -0.4105
 19373 H1         -23.6690    22.9100    54.3900 H       154  TIP4        0.2052
 19374 H2         -23.3410    23.2520    55.8270 H       154  TIP4        0.2052
 19375 OH2         -4.4020     0.5670   -47.4990 O.3     155  TIP5       -0.4105
 19376 H1          -4.5910     1.5060   -47.4950 H       155  TIP5        0.2052
 19377 H2          -3.7050     0.4660   -48.1480 H       155  TIP5        0.2052
 19378 OH2         25.4790    11.4380   -32.7330 O.3     156  TIP6       -0.4105
 19379 H1          26.2780    11.3560   -32.2120 H       156  TIP6        0.2052
 19380 H2          25.1210    10.5510   -32.7660 H       156  TIP6        0.2052
 19381 OH2         32.1970   -19.8040   -44.3690 O.3     157  TIP7       -0.4105
 19382 H1          31.3810   -19.4440   -44.7140 H       157  TIP7        0.2052
 19383 H2          32.6530   -19.0510   -43.9930 H       157  TIP7        0.2052
 19384 OH2        -21.6750   -15.6970    28.7850 O.3     158  TIP8       -0.4105
 19385 H1         -22.5480   -15.3040    28.8120 H       158  TIP8        0.2052
 19386 H2         -21.7610   -16.4310    28.1770 H       158  TIP8        0.2052
 19387 OH2         25.4670    -3.9650    40.1500 O.3     159  TIP9       -0.4105
 19388 H1          26.1910    -3.4480    39.7980 H       159  TIP9        0.2052
 19389 H2          25.5010    -3.8140    41.0950 H       159  TIP9        0.2052
 19390 OH2         11.7540     2.9850   -24.0630 O.3     160  TIP10      -0.4105
 19391 H1          11.6670     2.8280   -23.1230 H       160  TIP10       0.2052
 19392 H2          11.6460     3.9310   -24.1590 H       160  TIP10       0.2052
 19393 OH2        -31.4220    25.4090    54.2490 O.3     161  TIP11      -0.4105
 19394 H1         -31.2510    25.0940    53.3610 H       161  TIP11       0.2052
 19395 H2         -31.5530    24.6130    54.7650 H       161  TIP11       0.2052
 19396 OH2          9.2670     1.9640    44.8890 O.3     162  TIP12      -0.4105
 19397 H1           8.3160     2.0680    44.9090 H       162  TIP12       0.2052
 19398 H2           9.4190     1.0780    45.2180 H       162  TIP12       0.2052
 19399 OH2        -14.5640   -17.1250   -21.1330 O.3     163  TIP13      -0.4105
 19400 H1         -13.6190   -17.0850   -21.2820 H       163  TIP13       0.2052
 19401 H2         -14.9390   -16.5830   -21.8270 H       163  TIP13       0.2052
 19402 OH2        -26.1380   -10.2600   -35.1640 O.3     164  TIP14      -0.4105
 19403 H1         -27.0760   -10.2500   -34.9740 H       164  TIP14       0.2052
 19404 H2         -25.9020   -11.1880   -35.1600 H       164  TIP14       0.2052
 19405 OH2        -28.2550     7.1770    47.9020 O.3     165  TIP15      -0.4105
 19406 H1         -27.6670     6.4400    47.7340 H       165  TIP15       0.2052
 19407 H2         -28.8960     7.1400    47.1920 H       165  TIP15       0.2052
 19408 OH2         29.8580    16.8360   -33.6460 O.3     166  TIP16      -0.4105
 19409 H1          30.1380    16.9010   -32.7330 H       166  TIP16       0.2052
 19410 H2          29.4590    17.6850   -33.8350 H       166  TIP16       0.2052
 19411 OH2        -28.5610    27.2210   -26.7770 O.3     167  TIP17      -0.4105
 19412 H1         -28.5110    28.1220   -27.0960 H       167  TIP17       0.2052
 19413 H2         -28.5760    27.3050   -25.8240 H       167  TIP17       0.2052
 19414 OH2         23.3050   -16.5370   -46.9570 O.3     168  TIP18      -0.4105
 19415 H1          22.6080   -16.5680   -46.3020 H       168  TIP18       0.2052
 19416 H2          24.0550   -16.9510   -46.5290 H       168  TIP18       0.2052
 19417 OH2        -19.0500    25.5940   -51.0800 O.3     169  TIP19      -0.4105
 19418 H1         -18.3250    26.1750   -51.3110 H       169  TIP19       0.2052
 19419 H2         -19.2920    25.8530   -50.1910 H       169  TIP19       0.2052
 19420 OH2          8.9160   -28.1030   -45.1340 O.3     170  TIP20      -0.4105
 19421 H1           8.2630   -27.4790   -45.4540 H       170  TIP20       0.2052
 19422 H2           8.4600   -28.6000   -44.4550 H       170  TIP20       0.2052
 19423 OH2         25.0150    21.3630   -29.7340 O.3     171  TIP21      -0.4105
 19424 H1          25.4140    21.1920   -30.5880 H       171  TIP21       0.2052
 19425 H2          24.8870    22.3110   -29.7140 H       171  TIP21       0.2052
 19426 OH2        -12.1230    20.4170   -48.3450 O.3     172  TIP22      -0.4105
 19427 H1         -13.0020    20.6160   -48.6680 H       172  TIP22       0.2052
 19428 H2         -12.2470    19.6750   -47.7530 H       172  TIP22       0.2052
 19429 OH2         20.9430   -15.5090    41.7390 O.3     173  TIP23      -0.4105
 19430 H1          21.3730   -16.3540    41.8690 H       173  TIP23       0.2052
 19431 H2          21.1260   -15.0210    42.5420 H       173  TIP23       0.2052
 19432 OH2         28.3780   -19.5100   -18.0430 O.3     174  TIP24      -0.4105
 19433 H1          29.2320   -19.1670   -18.3030 H       174  TIP24       0.2052
 19434 H2          27.8370   -18.7320   -17.9100 H       174  TIP24       0.2052
 19435 OH2         32.1480     0.9260    16.2070 O.3     175  TIP25      -0.4105
 19436 H1          32.6430     0.4750    16.8910 H       175  TIP25       0.2052
 19437 H2          32.4880     0.5660    15.3880 H       175  TIP25       0.2052
 19438 OH2         -3.1400   -21.8490    34.8360 O.3     176  TIP26      -0.4105
 19439 H1          -2.4150   -22.2390    34.3480 H       176  TIP26       0.2052
 19440 H2          -2.7890   -21.0220    35.1660 H       176  TIP26       0.2052
 19441 OH2         25.2180   -14.4610    37.8990 O.3     177  TIP27      -0.4105
 19442 H1          24.7980   -14.4550    38.7600 H       177  TIP27       0.2052
 19443 H2          26.0790   -14.0700    38.0500 H       177  TIP27       0.2052
 19444 OH2        -13.4690     6.3950   -52.6200 O.3     178  TIP28      -0.4105
 19445 H1         -13.1670     5.8280   -53.3290 H       178  TIP28       0.2052
 19446 H2         -14.1300     6.9560   -53.0260 H       178  TIP28       0.2052
 19447 OH2          5.7390    -1.6450   -32.3870 O.3     179  TIP29      -0.4105
 19448 H1           4.8070    -1.8530   -32.3140 H       179  TIP29       0.2052
 19449 H2           6.1620    -2.2070   -31.7370 H       179  TIP29       0.2052
 19450 OH2         31.8210    22.2780    51.1080 O.3     180  TIP30      -0.4105
 19451 H1          31.6800    22.6070    50.2210 H       180  TIP30       0.2052
 19452 H2          30.9940    21.8570    51.3430 H       180  TIP30       0.2052
 19453 OH2         31.6700     4.5720   -38.4070 O.3     181  TIP31      -0.4105
 19454 H1          31.9930     3.8130   -38.8930 H       181  TIP31       0.2052
 19455 H2          30.8600     4.2680   -37.9970 H       181  TIP31       0.2052
 19456 OH2         21.1410    18.4220    35.2380 O.3     182  TIP32      -0.4105
 19457 H1          20.4520    17.8700    34.8680 H       182  TIP32       0.2052
 19458 H2          21.0900    19.2360    34.7380 H       182  TIP32       0.2052
 19459 OH2         13.4210   -17.7070    48.1980 O.3     183  TIP33      -0.4105
 19460 H1          12.6470   -18.0860    48.6140 H       183  TIP33       0.2052
 19461 H2          13.0720   -17.1640    47.4910 H       183  TIP33       0.2052
 19462 OH2        -10.0880     3.5040   -35.3910 O.3     184  TIP34      -0.4105
 19463 H1          -9.4630     3.3740   -36.1040 H       184  TIP34       0.2052
 19464 H2         -10.3070     2.6180   -35.1000 H       184  TIP34       0.2052
 19465 OH2        -14.5800    30.3280    39.3210 O.3     185  TIP35      -0.4105
 19466 H1         -15.3870    30.0550    39.7570 H       185  TIP35       0.2052
 19467 H2         -14.8460    30.5190    38.4220 H       185  TIP35       0.2052
 19468 OH2        -16.7140    27.6930    19.8590 O.3     186  TIP36      -0.4105
 19469 H1         -15.9040    27.1830    19.8470 H       186  TIP36       0.2052
 19470 H2         -17.2900    27.2410    19.2430 H       186  TIP36       0.2052
 19471 OH2         -9.8090   -12.4840   -35.0280 O.3     187  TIP37      -0.4105
 19472 H1         -10.2700   -13.3230   -35.0560 H       187  TIP37       0.2052
 19473 H2          -9.6330   -12.3380   -34.0980 H       187  TIP37       0.2052
 19474 OH2         14.5800     4.5270    49.1510 O.3     188  TIP38      -0.4105
 19475 H1          13.7440     4.9240    48.9060 H       188  TIP38       0.2052
 19476 H2          14.9880     5.1670    49.7340 H       188  TIP38       0.2052
 19477 OH2          7.2620    -2.7850   -30.4490 O.3     189  TIP39      -0.4105
 19478 H1           7.9080    -3.3070   -29.9730 H       189  TIP39       0.2052
 19479 H2           7.7800    -2.2560   -31.0550 H       189  TIP39       0.2052
 19480 OH2         21.2580    26.3870    52.3310 O.3     190  TIP40      -0.4105
 19481 H1          21.6950    26.7640    53.0950 H       190  TIP40       0.2052
 19482 H2          20.3870    26.1480    52.6470 H       190  TIP40       0.2052
 19483 OH2         -6.8180   -32.1180   -31.0980 O.3     191  TIP41      -0.4105
 19484 H1          -5.9340   -31.7720   -30.9760 H       191  TIP41       0.2052
 19485 H2          -7.2050   -32.1030   -30.2230 H       191  TIP41       0.2052
 19486 OH2        -25.7900    11.7010    49.9680 O.3     192  TIP42      -0.4105
 19487 H1         -25.7410    12.4050    49.3210 H       192  TIP42       0.2052
 19488 H2         -25.6750    10.8990    49.4590 H       192  TIP42       0.2052
 19489 OH2          2.8950     6.8110    34.5260 O.3     193  TIP43      -0.4105
 19490 H1           2.0710     7.1950    34.2270 H       193  TIP43       0.2052
 19491 H2           3.4110     6.6960    33.7280 H       193  TIP43       0.2052
 19492 OH2        -29.6250    -8.2120   -32.9410 O.3     194  TIP44      -0.4105
 19493 H1         -29.4600    -8.8740   -33.6120 H       194  TIP44       0.2052
 19494 H2         -30.3600    -7.7020   -33.2810 H       194  TIP44       0.2052
 19495 OH2         19.5220    32.1590   -38.0370 O.3     195  TIP45      -0.4105
 19496 H1          18.8590    32.5030   -37.4390 H       195  TIP45       0.2052
 19497 H2          20.3550    32.4400   -37.6600 H       195  TIP45       0.2052
 19498 OH2         -2.5550    -8.4900    55.4440 O.3     196  TIP46      -0.4105
 19499 H1          -2.3040    -8.0100    54.6550 H       196  TIP46       0.2052
 19500 H2          -2.8020    -9.3590    55.1280 H       196  TIP46       0.2052
 19501 OH2         21.7830   -25.9330    28.1990 O.3     197  TIP47      -0.4105
 19502 H1          21.1940   -25.1970    28.0340 H       197  TIP47       0.2052
 19503 H2          21.9820   -26.2810    27.3300 H       197  TIP47       0.2052
 19504 OH2         12.3230   -24.8180    18.5240 O.3     198  TIP48      -0.4105
 19505 H1          12.2330   -25.7560    18.6960 H       198  TIP48       0.2052
 19506 H2          12.1690   -24.4030    19.3730 H       198  TIP48       0.2052
 19507 OH2          5.4570    -3.4690   -44.2600 O.3     199  TIP49      -0.4105
 19508 H1           6.3060    -3.6350   -44.6680 H       199  TIP49       0.2052
 19509 H2           4.9930    -2.9130   -44.8860 H       199  TIP49       0.2052
 19510 OH2         -6.3800    14.2500   -27.5880 O.3     200  TIP50      -0.4105
 19511 H1          -6.3800    13.3090   -27.4180 H       200  TIP50       0.2052
 19512 H2          -6.4920    14.3230   -28.5360 H       200  TIP50       0.2052
 19513 OH2        -16.1850   -28.4300   -37.6310 O.3     201  TIP51      -0.4105
 19514 H1         -16.9300   -28.3260   -37.0390 H       201  TIP51       0.2052
 19515 H2         -15.7310   -29.2090   -37.3090 H       201  TIP51       0.2052
 19516 OH2         16.3020    19.0980   -52.8940 O.3     202  TIP52      -0.4105
 19517 H1          16.3230    18.7590   -53.7880 H       202  TIP52       0.2052
 19518 H2          15.3700    19.1480   -52.6780 H       202  TIP52       0.2052
 19519 OH2          8.2290    -8.9370   -42.2840 O.3     203  TIP53      -0.4105
 19520 H1           7.6280    -8.3000   -42.6690 H       203  TIP53       0.2052
 19521 H2           8.4560    -8.5680   -41.4300 H       203  TIP53       0.2052
 19522 OH2         -1.1160   -17.1540    37.9510 O.3     204  TIP54      -0.4105
 19523 H1          -1.6850   -17.7370    38.4530 H       204  TIP54       0.2052
 19524 H2          -1.1030   -16.3400    38.4540 H       204  TIP54       0.2052
 19525 OH2        -28.0240   -19.6620    55.4650 O.3     205  TIP55      -0.4105
 19526 H1         -27.2390   -20.0580    55.8440 H       205  TIP55       0.2052
 19527 H2         -28.6010   -20.4030    55.2790 H       205  TIP55       0.2052
 19528 OH2         24.4170     0.2640   -49.1000 O.3     206  TIP56      -0.4105
 19529 H1          24.5470    -0.2590   -48.3090 H       206  TIP56       0.2052
 19530 H2          24.4300     1.1700   -48.7930 H       206  TIP56       0.2052
 19531 OH2         22.5000    20.6450   -29.0350 O.3     207  TIP57      -0.4105
 19532 H1          22.3820    19.7940   -29.4570 H       207  TIP57       0.2052
 19533 H2          23.4050    20.8870   -29.2320 H       207  TIP57       0.2052
 19534 OH2         28.4650   -24.9860    30.5070 O.3     208  TIP58      -0.4105
 19535 H1          27.8470   -24.2570    30.4610 H       208  TIP58       0.2052
 19536 H2          27.9530   -25.7140    30.8590 H       208  TIP58       0.2052
 19537 OH2        -22.0550   -24.9580    48.0850 O.3     209  TIP59      -0.4105
 19538 H1         -21.7820   -25.6820    48.6470 H       209  TIP59       0.2052
 19539 H2         -22.5510   -24.3790    48.6640 H       209  TIP59       0.2052
 19540 OH2        -30.5670    -9.0710    42.2050 O.3     210  TIP60      -0.4105
 19541 H1         -29.8190    -9.0180    42.8000 H       210  TIP60       0.2052
 19542 H2         -31.2230    -9.5730    42.6890 H       210  TIP60       0.2052
 19543 OH2         17.1820    15.1760   -22.9300 O.3     211  TIP61      -0.4105
 19544 H1          17.0220    15.3990   -22.0130 H       211  TIP61       0.2052
 19545 H2          18.1350    15.1990   -23.0200 H       211  TIP61       0.2052
 19546 OH2         32.0310   -27.2670   -31.3450 O.3     212  TIP62      -0.4105
 19547 H1          31.8540   -27.4880   -30.4310 H       212  TIP62       0.2052
 19548 H2          31.4120   -27.8000   -31.8450 H       212  TIP62       0.2052
 19549 OH2         -7.3550   -29.5100    41.9670 O.3     213  TIP63      -0.4105
 19550 H1          -7.1370   -29.9810    41.1630 H       213  TIP63       0.2052
 19551 H2          -7.5200   -30.1980    42.6120 H       213  TIP63       0.2052
 19552 OH2        -23.2300    15.5320   -45.1750 O.3     214  TIP64      -0.4105
 19553 H1         -23.6090    14.7810   -45.6330 H       214  TIP64       0.2052
 19554 H2         -23.9870    16.0250   -44.8570 H       214  TIP64       0.2052
 19555 OH2         16.3300    27.6590    50.6660 O.3     215  TIP65      -0.4105
 19556 H1          17.0590    27.0700    50.8630 H       215  TIP65       0.2052
 19557 H2          16.5960    28.5010    51.0370 H       215  TIP65       0.2052
 19558 OH2         -6.3660   -28.7060    20.9760 O.3     216  TIP66      -0.4105
 19559 H1          -5.5620   -28.5210    21.4610 H       216  TIP66       0.2052
 19560 H2          -6.7130   -27.8430    20.7480 H       216  TIP66       0.2052
 19561 OH2         28.9260   -23.3050   -33.5850 O.3     217  TIP67      -0.4105
 19562 H1          27.9800   -23.4100   -33.6900 H       217  TIP67       0.2052
 19563 H2          29.0880   -22.3830   -33.7820 H       217  TIP67       0.2052
 19564 OH2        -26.5130    24.2570   -45.3800 O.3     218  TIP68      -0.4105
 19565 H1         -26.9580    23.8940   -46.1450 H       218  TIP68       0.2052
 19566 H2         -27.0290    23.9500   -44.6340 H       218  TIP68       0.2052
 19567 OH2        -31.1220    21.4470    31.1630 O.3     219  TIP69      -0.4105
 19568 H1         -30.8160    22.1040    31.7870 H       219  TIP69       0.2052
 19569 H2         -31.9530    21.1390    31.5250 H       219  TIP69       0.2052
 19570 OH2        -16.2930   -20.3390   -18.5050 O.3     220  TIP70      -0.4105
 19571 H1         -16.3330   -21.2780   -18.6850 H       220  TIP70       0.2052
 19572 H2         -17.2080   -20.0670   -18.4430 H       220  TIP70       0.2052
 19573 OH2        -11.0080   -12.9850   -23.3640 O.3     221  TIP71      -0.4105
 19574 H1         -11.0780   -12.4340   -22.5840 H       221  TIP71       0.2052
 19575 H2         -10.7030   -13.8300   -23.0340 H       221  TIP71       0.2052
 19576 OH2        -26.8500    -4.6720   -38.5520 O.3     222  TIP72      -0.4105
 19577 H1         -27.1730    -4.1080   -37.8490 H       222  TIP72       0.2052
 19578 H2         -27.3940    -5.4580   -38.4980 H       222  TIP72       0.2052
 19579 OH2        -27.4960    16.4210   -47.1950 O.3     223  TIP73      -0.4105
 19580 H1         -28.2040    16.6930   -46.6110 H       223  TIP73       0.2052
 19581 H2         -27.1190    15.6500   -46.7710 H       223  TIP73       0.2052
 19582 OH2          8.4330     0.6980   -32.3950 O.3     224  TIP74      -0.4105
 19583 H1           8.6770     1.0140   -33.2650 H       224  TIP74       0.2052
 19584 H2           8.3770     1.4890   -31.8590 H       224  TIP74       0.2052
 19585 OH2         21.2070   -32.5710   -36.2920 O.3     225  TIP75      -0.4105
 19586 H1          20.8460   -31.6890   -36.3840 H       225  TIP75       0.2052
 19587 H2          20.8690   -32.8820   -35.4520 H       225  TIP75       0.2052
 19588 OH2         28.1600    22.2540    41.5070 O.3     226  TIP76      -0.4105
 19589 H1          27.9110    23.1670    41.6560 H       226  TIP76       0.2052
 19590 H2          27.3620    21.7560    41.6850 H       226  TIP76       0.2052
 19591 OH2          1.3430    20.4520   -27.8720 O.3     227  TIP77      -0.4105
 19592 H1           0.4050    20.5290   -27.6960 H       227  TIP77       0.2052
 19593 H2           1.6960    21.3200   -27.6770 H       227  TIP77       0.2052
 19594 OH2        -12.6990   -22.9310    52.4330 O.3     228  TIP78      -0.4105
 19595 H1         -13.6470   -22.8290    52.3490 H       228  TIP78       0.2052
 19596 H2         -12.5610   -23.1370    53.3570 H       228  TIP78       0.2052
 19597 OH2        -10.9240   -20.9130    41.6580 O.3     229  TIP79      -0.4105
 19598 H1         -10.2870   -21.6170    41.7820 H       229  TIP79       0.2052
 19599 H2         -10.3930   -20.1380    41.4750 H       229  TIP79       0.2052
 19600 OH2         12.3870   -19.7700    26.2550 O.3     230  TIP80      -0.4105
 19601 H1          12.3390   -19.2150    27.0330 H       230  TIP80       0.2052
 19602 H2          11.5430   -20.2210    26.2300 H       230  TIP80       0.2052
 19603 OH2        -18.5160    27.5280   -17.8750 O.3     231  TIP81      -0.4105
 19604 H1         -17.9020    28.1540   -18.2570 H       231  TIP81       0.2052
 19605 H2         -17.9760    26.7720   -17.6430 H       231  TIP81       0.2052
 19606 OH2          6.4060    21.3600    40.5210 O.3     232  TIP82      -0.4105
 19607 H1           6.3460    20.4160    40.6680 H       232  TIP82       0.2052
 19608 H2           7.0660    21.4540    39.8340 H       232  TIP82       0.2052
 19609 OH2        -18.6470    16.7190   -38.3700 O.3     233  TIP83      -0.4105
 19610 H1         -18.8660    17.1370   -39.2030 H       233  TIP83       0.2052
 19611 H2         -18.3700    17.4410   -37.8050 H       233  TIP83       0.2052
 19612 OH2         15.4020     2.5360   -35.5400 O.3     234  TIP84      -0.4105
 19613 H1          15.4620     2.0920   -34.6940 H       234  TIP84       0.2052
 19614 H2          16.3110     2.6570   -35.8130 H       234  TIP84       0.2052
 19615 OH2         -1.0680   -28.9150   -28.7550 O.3     235  TIP85      -0.4105
 19616 H1          -0.5020   -28.2050   -28.4540 H       235  TIP85       0.2052
 19617 H2          -1.8900   -28.7830   -28.2820 H       235  TIP85       0.2052
 19618 OH2        -30.5650   -27.3110   -43.3840 O.3     236  TIP86      -0.4105
 19619 H1         -30.0870   -27.0760   -44.1790 H       236  TIP86       0.2052
 19620 H2         -30.6160   -26.4960   -42.8850 H       236  TIP86       0.2052
 19621 OH2         12.5800   -15.8300    54.2650 O.3     237  TIP87      -0.4105
 19622 H1          11.6450   -15.8480    54.0600 H       237  TIP87       0.2052
 19623 H2          13.0090   -15.7030    53.4190 H       237  TIP87       0.2052
 19624 OH2          3.6560    -6.8070   -17.9940 O.3     238  TIP88      -0.4105
 19625 H1           3.4510    -7.0510   -17.0910 H       238  TIP88       0.2052
 19626 H2           4.6010    -6.6520   -17.9920 H       238  TIP88       0.2052
 19627 OH2        -10.5550    -6.1290    42.9050 O.3     239  TIP89      -0.4105
 19628 H1          -9.9870    -5.4600    42.5230 H       239  TIP89       0.2052
 19629 H2         -11.1630    -5.6390    43.4590 H       239  TIP89       0.2052
 19630 OH2          4.4360     1.3370   -54.1380 O.3     240  TIP90      -0.4105
 19631 H1           3.9270     2.0820   -54.4570 H       240  TIP90       0.2052
 19632 H2           3.7830     0.7400   -53.7720 H       240  TIP90       0.2052
 19633 OH2         -8.3960    28.7760   -50.9290 O.3     241  TIP91      -0.4105
 19634 H1          -8.7290    27.9450   -51.2670 H       241  TIP91       0.2052
 19635 H2          -9.0910    29.0960   -50.3540 H       241  TIP91       0.2052
 19636 OH2         18.7580   -16.0210   -54.3880 O.3     242  TIP92      -0.4105
 19637 H1          19.1500   -15.7950   -53.5450 H       242  TIP92       0.2052
 19638 H2          19.4620   -15.8870   -55.0240 H       242  TIP92       0.2052
 19639 OH2          5.8010   -12.2370   -27.3150 O.3     243  TIP93      -0.4105
 19640 H1           6.2220   -11.4970   -27.7520 H       243  TIP93       0.2052
 19641 H2           5.5050   -12.8020   -28.0290 H       243  TIP93       0.2052
 19642 OH2        -13.3920    -9.5840   -49.7810 O.3     244  TIP94      -0.4105
 19643 H1         -12.8540   -10.1860   -49.2680 H       244  TIP94       0.2052
 19644 H2         -12.8790    -9.4180   -50.5720 H       244  TIP94       0.2052
 19645 OH2         23.2610    -5.0400    25.3090 O.3     245  TIP95      -0.4105
 19646 H1          23.1900    -4.4690    26.0740 H       245  TIP95       0.2052
 19647 H2          23.0090    -5.9050    25.6300 H       245  TIP95       0.2052
 19648 OH2         18.7500   -30.2950    42.4340 O.3     246  TIP96      -0.4105
 19649 H1          18.6580   -31.1850    42.7760 H       246  TIP96       0.2052
 19650 H2          18.2640   -30.3030    41.6100 H       246  TIP96       0.2052
 19651 OH2         21.2180    -7.1290   -27.3660 O.3     247  TIP97      -0.4105
 19652 H1          20.9170    -6.4630   -27.9840 H       247  TIP97       0.2052
 19653 H2          21.0810    -7.9590   -27.8230 H       247  TIP97       0.2052
 19654 OH2         29.0390     3.9750    40.1790 O.3     248  TIP98      -0.4105
 19655 H1          28.2170     3.4960    40.0750 H       248  TIP98       0.2052
 19656 H2          29.5140     3.4910    40.8550 H       248  TIP98       0.2052
 19657 OH2        -13.5750   -19.0800    37.3740 O.3     249  TIP99      -0.4105
 19658 H1         -13.9040   -19.8930    37.7580 H       249  TIP99       0.2052
 19659 H2         -13.1090   -18.6490    38.0910 H       249  TIP99       0.2052
 19660 OH2          6.3450     3.7880   -26.6710 O.3     250  TIP100     -0.4105
 19661 H1           6.0280     4.2420   -27.4520 H       250  TIP100      0.2052
 19662 H2           5.6900     3.9780   -26.0000 H       250  TIP100      0.2052
 19663 OH2        -32.5280   -28.2000    28.5730 O.3     251  TIP101     -0.4105
 19664 H1         -33.1630   -27.9100    27.9180 H       251  TIP101      0.2052
 19665 H2         -31.8140   -27.5660    28.5130 H       251  TIP101      0.2052
 19666 OH2          2.5760    23.3640    51.5720 O.3     252  TIP102     -0.4105
 19667 H1           2.3280    23.3500    52.4970 H       252  TIP102      0.2052
 19668 H2           3.3740    22.8380    51.5300 H       252  TIP102      0.2052
 19669 OH2         -8.2850   -25.4630   -38.3690 O.3     253  TIP103     -0.4105
 19670 H1          -8.9600   -25.0950   -38.9390 H       253  TIP103      0.2052
 19671 H2          -7.7500   -24.7110   -38.1140 H       253  TIP103      0.2052
 19672 OH2        -12.7850   -26.4470   -29.2070 O.3     254  TIP104     -0.4105
 19673 H1         -12.6290   -26.2170   -28.2910 H       254  TIP104      0.2052
 19674 H2         -13.6060   -26.9390   -29.1940 H       254  TIP104      0.2052
 19675 OH2         17.5790   -32.5260   -36.7330 O.3     255  TIP105     -0.4105
 19676 H1          17.5390   -31.9070   -36.0030 H       255  TIP105      0.2052
 19677 H2          17.2640   -32.0280   -37.4870 H       255  TIP105      0.2052
 19678 OH2         26.3360   -29.2750   -35.6590 O.3     256  TIP106     -0.4105
 19679 H1          26.8450   -30.0580   -35.4520 H       256  TIP106      0.2052
 19680 H2          26.7410   -28.5810   -35.1380 H       256  TIP106      0.2052
 19681 OH2         30.6280    14.8190   -28.2160 O.3     257  TIP107     -0.4105
 19682 H1          31.3260    15.1760   -27.6670 H       257  TIP107      0.2052
 19683 H2          30.2450    15.5840   -28.6440 H       257  TIP107      0.2052
 19684 OH2          2.2810   -17.1110   -52.8210 O.3     258  TIP108     -0.4105
 19685 H1           2.3470   -17.3640   -51.9000 H       258  TIP108      0.2052
 19686 H2           1.5520   -16.4910   -52.8480 H       258  TIP108      0.2052
 19687 OH2         21.0490   -22.5860    28.7810 O.3     259  TIP109     -0.4105
 19688 H1          21.5980   -22.4070    28.0170 H       259  TIP109      0.2052
 19689 H2          20.5090   -21.8020    28.8780 H       259  TIP109      0.2052
 19690 OH2         22.4990    -2.5480    30.6530 O.3     260  TIP110     -0.4105
 19691 H1          23.0150    -1.8320    30.2800 H       260  TIP110      0.2052
 19692 H2          23.1140    -3.0180    31.2170 H       260  TIP110      0.2052
 19693 OH2         -0.5840    -4.2440   -16.4440 O.3     261  TIP111     -0.4105
 19694 H1          -0.2620    -5.0750   -16.0940 H       261  TIP111      0.2052
 19695 H2          -1.5220    -4.2520   -16.2570 H       261  TIP111      0.2052
 19696 OH2        -22.5590    14.2870   -28.4230 O.3     262  TIP112     -0.4105
 19697 H1         -23.1890    14.7410   -28.9840 H       262  TIP112      0.2052
 19698 H2         -22.5390    13.3920   -28.7600 H       262  TIP112      0.2052
 19699 OH2         -9.8710     8.2720   -24.6970 O.3     263  TIP113     -0.4105
 19700 H1          -9.5150     7.3840   -24.6820 H       263  TIP113      0.2052
 19701 H2         -10.6070     8.2460   -24.0850 H       263  TIP113      0.2052
 19702 OH2         29.6700   -10.6330   -30.7860 O.3     264  TIP114     -0.4105
 19703 H1          29.2760   -10.7600   -31.6490 H       264  TIP114      0.2052
 19704 H2          28.9760   -10.2360   -30.2600 H       264  TIP114      0.2052
 19705 OH2        -32.8160     0.6600   -44.9480 O.3     265  TIP115     -0.4105
 19706 H1         -31.8890     0.4710   -44.7990 H       265  TIP115      0.2052
 19707 H2         -32.8400     1.0790   -45.8090 H       265  TIP115      0.2052
 19708 OH2          5.1350     9.4680   -46.8250 O.3     266  TIP116     -0.4105
 19709 H1           5.7800     9.4560   -46.1170 H       266  TIP116      0.2052
 19710 H2           5.0500     8.5520   -47.0870 H       266  TIP116      0.2052
 19711 OH2         14.8180   -14.3070   -25.6910 O.3     267  TIP117     -0.4105
 19712 H1          15.2740   -15.1390   -25.5630 H       267  TIP117      0.2052
 19713 H2          14.6370   -14.2750   -26.6310 H       267  TIP117      0.2052
 19714 OH2          7.1770   -27.7890   -21.3280 O.3     268  TIP118     -0.4105
 19715 H1           7.9970   -27.3720   -21.5940 H       268  TIP118      0.2052
 19716 H2           6.5750   -27.0600   -21.1770 H       268  TIP118      0.2052
 19717 OH2        -32.4420    -6.0550    38.3280 O.3     269  TIP119     -0.4105
 19718 H1         -31.8760    -5.4110    38.7520 H       269  TIP119      0.2052
 19719 H2         -32.6620    -5.6620    37.4830 H       269  TIP119      0.2052
 19720 OH2        -31.3830    -9.1540   -27.4980 O.3     270  TIP120     -0.4105
 19721 H1         -31.0190    -9.3610   -26.6370 H       270  TIP120      0.2052
 19722 H2         -31.7770    -9.9750   -27.7950 H       270  TIP120      0.2052
 19723 OH2         22.0480    -1.3370    35.1670 O.3     271  TIP121     -0.4105
 19724 H1          22.4110    -0.8230    34.4460 H       271  TIP121      0.2052
 19725 H2          22.2900    -0.8490    35.9550 H       271  TIP121      0.2052
 19726 OH2         11.4290    31.7800    39.3030 O.3     272  TIP122     -0.4105
 19727 H1          11.5090    30.8260    39.2950 H       272  TIP122      0.2052
 19728 H2          11.8880    32.0530    40.0980 H       272  TIP122      0.2052
 19729 OH2         10.3670   -30.5290    17.7070 O.3     273  TIP123     -0.4105
 19730 H1           9.9940   -29.6610    17.5520 H       273  TIP123      0.2052
 19731 H2          11.1870   -30.3580    18.1700 H       273  TIP123      0.2052
 19732 OH2         -0.9140   -10.4050   -17.5230 O.3     274  TIP124     -0.4105
 19733 H1          -1.2180    -9.5090   -17.6690 H       274  TIP124      0.2052
 19734 H2          -1.7110   -10.9020   -17.3390 H       274  TIP124      0.2052
 19735 OH2         17.0720    30.7500   -44.1150 O.3     275  TIP125     -0.4105
 19736 H1          18.0150    30.6570   -44.2560 H       275  TIP125      0.2052
 19737 H2          16.7520    31.1780   -44.9090 H       275  TIP125      0.2052
 19738 OH2         26.1800   -24.4720   -21.5870 O.3     276  TIP126     -0.4105
 19739 H1          26.3860   -23.5410   -21.6710 H       276  TIP126      0.2052
 19740 H2          25.6370   -24.6670   -22.3510 H       276  TIP126      0.2052
 19741 OH2         15.6380   -10.3270    45.0950 O.3     277  TIP127     -0.4105
 19742 H1          14.8930    -9.9160    45.5330 H       277  TIP127      0.2052
 19743 H2          16.4040    -9.9990    45.5660 H       277  TIP127      0.2052
 19744 OH2         25.2120    -2.9160   -31.5660 O.3     278  TIP128     -0.4105
 19745 H1          25.9020    -3.2560   -30.9960 H       278  TIP128      0.2052
 19746 H2          25.6190    -2.1820   -32.0250 H       278  TIP128      0.2052
 19747 OH2        -17.6810    27.1480   -47.8630 O.3     279  TIP129     -0.4105
 19748 H1         -17.2590    26.3610   -47.5170 H       279  TIP129      0.2052
 19749 H2         -18.5050    26.8350   -48.2340 H       279  TIP129      0.2052
 19750 OH2          3.6280    18.1840   -31.1680 O.3     280  TIP130     -0.4105
 19751 H1           3.1290    17.4890   -30.7380 H       280  TIP130      0.2052
 19752 H2           3.7990    18.8210   -30.4730 H       280  TIP130      0.2052
 19753 OH2        -19.4310    32.4970   -36.5920 O.3     281  TIP131     -0.4105
 19754 H1         -19.5750    33.4430   -36.5540 H       281  TIP131      0.2052
 19755 H2         -20.1520    32.1240   -36.0850 H       281  TIP131      0.2052
 19756 OH2          5.1590   -14.1350   -51.1720 O.3     282  TIP132     -0.4105
 19757 H1           5.3270   -13.5160   -50.4620 H       282  TIP132      0.2052
 19758 H2           4.9210   -14.9500   -50.7300 H       282  TIP132      0.2052
 19759 OH2         32.8540   -18.7700   -51.4490 O.3     283  TIP133     -0.4105
 19760 H1          32.3800   -19.5460   -51.7470 H       283  TIP133      0.2052
 19761 H2          33.7720   -19.0410   -51.4340 H       283  TIP133      0.2052
 19762 OH2         13.5180    26.0230    19.8630 O.3     284  TIP134     -0.4105
 19763 H1          14.0900    26.4080    19.1990 H       284  TIP134      0.2052
 19764 H2          12.6320    26.1820    19.5370 H       284  TIP134      0.2052
 19765 OH2        -10.8190     3.9260    53.0870 O.3     285  TIP135     -0.4105
 19766 H1          -9.8970     3.6760    53.0420 H       285  TIP135      0.2052
 19767 H2         -11.1120     3.6090    53.9410 H       285  TIP135      0.2052
 19768 OH2         15.4890    15.8750   -40.3670 O.3     286  TIP136     -0.4105
 19769 H1          15.6050    16.1460   -39.4570 H       286  TIP136      0.2052
 19770 H2          16.2400    16.2510   -40.8270 H       286  TIP136      0.2052
 19771 OH2         22.4660   -26.9910    34.8370 O.3     287  TIP137     -0.4105
 19772 H1          23.2140   -26.7210    35.3700 H       287  TIP137      0.2052
 19773 H2          22.3990   -26.3190    34.1590 H       287  TIP137      0.2052
 19774 OH2         22.9490   -22.5940    43.1130 O.3     288  TIP138     -0.4105
 19775 H1          23.5800   -22.0100    43.5340 H       288  TIP138      0.2052
 19776 H2          23.3400   -23.4650    43.1890 H       288  TIP138      0.2052
 19777 OH2          7.4220   -21.9440    37.7760 O.3     289  TIP139     -0.4105
 19778 H1           8.1390   -22.4980    38.0840 H       289  TIP139      0.2052
 19779 H2           6.6420   -22.3040    38.1980 H       289  TIP139      0.2052
 19780 OH2         30.1530   -13.2260    51.1030 O.3     290  TIP140     -0.4105
 19781 H1          30.0070   -13.0470    50.1740 H       290  TIP140      0.2052
 19782 H2          30.1490   -14.1810    51.1670 H       290  TIP140      0.2052
 19783 OH2        -30.9030     6.7400   -47.2240 O.3     291  TIP141     -0.4105
 19784 H1         -30.5450     5.9730   -46.7780 H       291  TIP141      0.2052
 19785 H2         -30.1970     7.0350   -47.7990 H       291  TIP141      0.2052
 19786 OH2         -4.9040    -6.7960   -22.8530 O.3     292  TIP142     -0.4105
 19787 H1          -5.8080    -6.7360   -23.1630 H       292  TIP142      0.2052
 19788 H2          -4.7280    -5.9410   -22.4610 H       292  TIP142      0.2052
 19789 OH2         28.8570    24.5260    49.8290 O.3     293  TIP143     -0.4105
 19790 H1          29.2480    24.7990    50.6590 H       293  TIP143      0.2052
 19791 H2          28.2040    23.8710    50.0760 H       293  TIP143      0.2052
 19792 OH2        -25.9620     8.1400   -27.8510 O.3     294  TIP144     -0.4105
 19793 H1         -26.0850     7.1950   -27.9370 H       294  TIP144      0.2052
 19794 H2         -25.0180     8.2690   -27.9420 H       294  TIP144      0.2052
 19795 OH2         15.4520    -5.0620    23.4610 O.3     295  TIP145     -0.4105
 19796 H1          16.2460    -4.5310    23.3920 H       295  TIP145      0.2052
 19797 H2          15.0610    -5.0230    22.5890 H       295  TIP145      0.2052
 19798 OH2        -25.3380    -9.1180   -24.4960 O.3     296  TIP146     -0.4105
 19799 H1         -26.0720    -8.6870   -24.0580 H       296  TIP146      0.2052
 19800 H2         -25.4530    -8.9040   -25.4220 H       296  TIP146      0.2052
 19801 OH2         24.3610   -24.9550   -23.7240 O.3     297  TIP147     -0.4105
 19802 H1          24.9180   -24.9690   -24.5020 H       297  TIP147      0.2052
 19803 H2          23.5040   -24.6780   -24.0460 H       297  TIP147      0.2052
 19804 OH2         17.7080    -3.7990    40.1070 O.3     298  TIP148     -0.4105
 19805 H1          18.2540    -3.4570    39.3990 H       298  TIP148      0.2052
 19806 H2          17.3650    -3.0190    40.5440 H       298  TIP148      0.2052
 19807 OH2         14.1060   -14.3400   -54.7500 O.3     299  TIP149     -0.4105
 19808 H1          13.6170   -14.8980   -55.3550 H       299  TIP149      0.2052
 19809 H2          14.7640   -14.9210   -54.3670 H       299  TIP149      0.2052
 19810 OH2        -19.4390   -25.2820    46.1760 O.3     300  TIP150     -0.4105
 19811 H1         -19.8800   -25.0340    45.3630 H       300  TIP150      0.2052
 19812 H2         -19.8620   -26.1000    46.4390 H       300  TIP150      0.2052
 19813 OH2          7.8450     8.1840   -28.7790 O.3     301  TIP151     -0.4105
 19814 H1           6.9940     8.4800   -29.1010 H       301  TIP151      0.2052
 19815 H2           7.6640     7.8420   -27.9030 H       301  TIP151      0.2052
 19816 OH2         19.2790    14.0000   -38.4150 O.3     302  TIP152     -0.4105
 19817 H1          18.6080    13.3500   -38.2090 H       302  TIP152      0.2052
 19818 H2          19.2990    14.0300   -39.3720 H       302  TIP152      0.2052
 19819 OH2        -24.2770   -19.9050    21.7190 O.3     303  TIP153     -0.4105
 19820 H1         -24.5940   -20.3620    20.9400 H       303  TIP153      0.2052
 19821 H2         -25.0150   -19.3620    21.9960 H       303  TIP153      0.2052
 19822 OH2         -8.4120    23.2670   -55.5660 O.3     304  TIP154     -0.4105
 19823 H1          -8.8830    24.0970   -55.6380 H       304  TIP154      0.2052
 19824 H2          -8.6360    22.9380   -54.6960 H       304  TIP154      0.2052
 19825 OH2        -29.2920   -19.6500   -36.6840 O.3     305  TIP155     -0.4105
 19826 H1         -29.0480   -20.0930   -35.8720 H       305  TIP155      0.2052
 19827 H2         -28.7090   -20.0220   -37.3450 H       305  TIP155      0.2052
 19828 OH2         -3.4440    -0.9370   -45.4030 O.3     306  TIP156     -0.4105
 19829 H1          -3.5130    -1.8140   -45.7810 H       306  TIP156      0.2052
 19830 H2          -3.5170    -0.3470   -46.1530 H       306  TIP156      0.2052
 19831 OH2         -7.9330     4.6090    53.3810 O.3     307  TIP157     -0.4105
 19832 H1          -7.0090     4.6930    53.6160 H       307  TIP157      0.2052
 19833 H2          -8.3250     5.4400    53.6500 H       307  TIP157      0.2052
 19834 OH2          9.9740    25.1590    31.9550 O.3     308  TIP158     -0.4105
 19835 H1          10.3190    25.2150    31.0630 H       308  TIP158      0.2052
 19836 H2           9.1000    25.5440    31.8990 H       308  TIP158      0.2052
 19837 OH2         29.9730    31.8610    37.9170 O.3     309  TIP159     -0.4105
 19838 H1          30.7740    31.4470    37.5970 H       309  TIP159      0.2052
 19839 H2          30.2760    32.5300    38.5300 H       309  TIP159      0.2052
 19840 OH2         14.6190    21.4900    49.2730 O.3     310  TIP160     -0.4105
 19841 H1          13.8450    20.9340    49.3670 H       310  TIP160      0.2052
 19842 H2          15.2290    21.1660    49.9360 H       310  TIP160      0.2052
 19843 OH2          2.7550    27.1120   -40.2420 O.3     311  TIP161     -0.4105
 19844 H1           1.8920    27.0520   -39.8310 H       311  TIP161      0.2052
 19845 H2           3.2020    27.8080   -39.7610 H       311  TIP161      0.2052
 19846 OH2         -7.0160     0.5740    48.6000 O.3     312  TIP162     -0.4105
 19847 H1          -6.8890     0.4750    47.6570 H       312  TIP162      0.2052
 19848 H2          -7.4240     1.4340    48.6990 H       312  TIP162      0.2052
 19849 OH2         14.8410   -28.2140    39.8890 O.3     313  TIP163     -0.4105
 19850 H1          14.2350   -27.6110    39.4580 H       313  TIP163      0.2052
 19851 H2          15.1200   -27.7500    40.6780 H       313  TIP163      0.2052
 19852 OH2         17.1770     8.0920   -29.4810 O.3     314  TIP164     -0.4105
 19853 H1          17.1950     7.9780   -28.5310 H       314  TIP164      0.2052
 19854 H2          18.0830     7.9520   -29.7560 H       314  TIP164      0.2052
 19855 OH2         13.5040   -24.0890   -26.2910 O.3     315  TIP165     -0.4105
 19856 H1          12.7560   -23.8260   -26.8270 H       315  TIP165      0.2052
 19857 H2          13.9710   -24.7300   -26.8280 H       315  TIP165      0.2052
 19858 OH2         11.6130    13.8330    47.3860 O.3     316  TIP166     -0.4105
 19859 H1          11.9270    13.1750    48.0060 H       316  TIP166      0.2052
 19860 H2          12.1360    13.6890    46.5980 H       316  TIP166      0.2052
 19861 OH2        -29.2590    20.2510    33.7610 O.3     317  TIP167     -0.4105
 19862 H1         -28.8830    20.0940    32.8950 H       317  TIP167      0.2052
 19863 H2         -29.8600    20.9850    33.6330 H       317  TIP167      0.2052
 19864 OH2        -16.0200    -8.2580   -36.2740 O.3     318  TIP168     -0.4105
 19865 H1         -16.5580    -8.0480   -37.0370 H       318  TIP168      0.2052
 19866 H2         -16.3520    -9.1030   -35.9710 H       318  TIP168      0.2052
 19867 OH2          0.3350   -24.0610    42.0770 O.3     319  TIP169     -0.4105
 19868 H1           0.1330   -24.7170    42.7440 H       319  TIP169      0.2052
 19869 H2          -0.5110   -23.6680    41.8630 H       319  TIP169      0.2052
 19870 OH2        -14.3140     6.4480   -22.0310 O.3     320  TIP170     -0.4105
 19871 H1         -14.3220     5.9020   -21.2440 H       320  TIP170      0.2052
 19872 H2         -13.6290     6.0660   -22.5810 H       320  TIP170      0.2052
 19873 OH2         -8.2790   -21.1210    40.1380 O.3     321  TIP171     -0.4105
 19874 H1          -8.0370   -20.3870    40.7030 H       321  TIP171      0.2052
 19875 H2          -7.4460   -21.4390    39.7890 H       321  TIP171      0.2052
 19876 OH2         -4.4510    18.9920   -28.9340 O.3     322  TIP172     -0.4105
 19877 H1          -4.0210    18.6690   -29.7270 H       322  TIP172      0.2052
 19878 H2          -4.7440    18.2020   -28.4800 H       322  TIP172      0.2052
 19879 OH2         -7.7600    25.8170   -41.5100 O.3     323  TIP173     -0.4105
 19880 H1          -7.4510    26.2040   -42.3290 H       323  TIP173      0.2052
 19881 H2          -7.3810    26.3690   -40.8260 H       323  TIP173      0.2052
 19882 OH2          9.6110   -27.8950   -27.0350 O.3     324  TIP174     -0.4105
 19883 H1           9.4030   -28.0270   -26.1100 H       324  TIP174      0.2052
 19884 H2          10.5460   -28.0880   -27.1000 H       324  TIP174      0.2052
 19885 OH2        -11.6700    12.7560    27.0020 O.3     325  TIP175     -0.4105
 19886 H1         -10.9710    13.3990    26.8780 H       325  TIP175      0.2052
 19887 H2         -11.7870    12.7090    27.9510 H       325  TIP175      0.2052
 19888 OH2          3.8080    -4.3630   -23.5310 O.3     326  TIP176     -0.4105
 19889 H1           3.3530    -4.0690   -24.3200 H       326  TIP176      0.2052
 19890 H2           4.5730    -3.7920   -23.4680 H       326  TIP176      0.2052
 19891 OH2         -7.4930   -30.1710    45.6040 O.3     327  TIP177     -0.4105
 19892 H1          -7.6320   -29.2950    45.9620 H       327  TIP177      0.2052
 19893 H2          -7.5690   -30.7550    46.3590 H       327  TIP177      0.2052
 19894 OH2         10.0470    19.7510   -36.4420 O.3     328  TIP178     -0.4105
 19895 H1          10.8460    20.2780   -36.4250 H       328  TIP178      0.2052
 19896 H2           9.8850    19.5900   -37.3710 H       328  TIP178      0.2052
 19897 OH2        -29.7740   -25.4210   -49.6970 O.3     329  TIP179     -0.4105
 19898 H1         -28.8710   -25.5400   -49.9900 H       329  TIP179      0.2052
 19899 H2         -29.7200   -24.7510   -49.0160 H       329  TIP179      0.2052
 19900 OH2        -10.4770    25.9870   -19.6440 O.3     330  TIP180     -0.4105
 19901 H1         -10.4350    25.3010   -20.3110 H       330  TIP180      0.2052
 19902 H2         -10.1050    25.5830   -18.8600 H       330  TIP180      0.2052
 19903 OH2         19.3630    18.1170   -36.6010 O.3     331  TIP181     -0.4105
 19904 H1          19.5580    18.3700   -35.6980 H       331  TIP181      0.2052
 19905 H2          18.8250    17.3300   -36.5190 H       331  TIP181      0.2052
 19906 OH2        -32.8160    26.4630   -52.3750 O.3     332  TIP182     -0.4105
 19907 H1         -32.3990    27.1270   -52.9250 H       332  TIP182      0.2052
 19908 H2         -33.7540    26.5890   -52.5170 H       332  TIP182      0.2052
 19909 OH2        -27.0130     1.9020    53.6940 O.3     333  TIP183     -0.4105
 19910 H1         -27.3380     1.0040    53.6330 H       333  TIP183      0.2052
 19911 H2         -27.4350     2.3600    52.9680 H       333  TIP183      0.2052
 19912 OH2        -13.0400    21.8980   -41.2160 O.3     334  TIP184     -0.4105
 19913 H1         -13.8530    22.4020   -41.1760 H       334  TIP184      0.2052
 19914 H2         -13.1520    21.2090   -40.5620 H       334  TIP184      0.2052
 19915 OH2          6.8610   -25.7380    23.1120 O.3     335  TIP185     -0.4105
 19916 H1           5.9780   -25.3690    23.0870 H       335  TIP185      0.2052
 19917 H2           7.1540   -25.7200    22.2010 H       335  TIP185      0.2052
 19918 OH2        -16.6650   -11.5550    46.9490 O.3     336  TIP186     -0.4105
 19919 H1         -17.0620   -11.0630    46.2300 H       336  TIP186      0.2052
 19920 H2         -15.9610   -12.0560    46.5380 H       336  TIP186      0.2052
 19921 OH2         17.9940    19.9130    37.1400 O.3     337  TIP187     -0.4105
 19922 H1          17.6390    19.4400    36.3870 H       337  TIP187      0.2052
 19923 H2          18.2450    19.2250    37.7570 H       337  TIP187      0.2052
 19924 OH2        -28.1920     2.3410    17.9580 O.3     338  TIP188     -0.4105
 19925 H1         -27.5280     1.9400    17.3970 H       338  TIP188      0.2052
 19926 H2         -27.7000     2.9350    18.5240 H       338  TIP188      0.2052
 19927 OH2         18.0090   -15.2260   -43.9590 O.3     339  TIP189     -0.4105
 19928 H1          17.0940   -15.4670   -43.8170 H       339  TIP189      0.2052
 19929 H2          18.4360   -15.3950   -43.1190 H       339  TIP189      0.2052
 19930 OH2         23.1810    -9.1990   -20.6410 O.3     340  TIP190     -0.4105
 19931 H1          23.2520   -10.1540   -20.6360 H       340  TIP190      0.2052
 19932 H2          22.5650    -9.0000   -19.9360 H       340  TIP190      0.2052
 19933 OH2        -29.6490   -21.2900    27.4230 O.3     341  TIP191     -0.4105
 19934 H1         -30.4690   -21.6610    27.7490 H       341  TIP191      0.2052
 19935 H2         -29.5970   -21.5840    26.5140 H       341  TIP191      0.2052
 19936 OH2        -26.4390   -14.7910    29.4570 O.3     342  TIP192     -0.4105
 19937 H1         -26.2080   -13.9590    29.8700 H       342  TIP192      0.2052
 19938 H2         -27.1200   -15.1580    30.0200 H       342  TIP192      0.2052
 19939 OH2        -23.3630    29.0940   -47.0250 O.3     343  TIP193     -0.4105
 19940 H1         -23.9190    29.8590   -46.8780 H       343  TIP193      0.2052
 19941 H2         -22.5610    29.2830   -46.5380 H       343  TIP193      0.2052
 19942 OH2          1.5940   -21.4950    54.8350 O.3     344  TIP194     -0.4105
 19943 H1           0.8240   -21.7770    55.3280 H       344  TIP194      0.2052
 19944 H2           1.5480   -20.5380    54.8450 H       344  TIP194      0.2052
 19945 OH2        -26.1690    29.1700   -28.8500 O.3     345  TIP195     -0.4105
 19946 H1         -25.4520    28.5510   -28.7060 H       345  TIP195      0.2052
 19947 H2         -26.3920    29.0670   -29.7750 H       345  TIP195      0.2052
 19948 OH2        -12.2920   -22.4150   -16.4710 O.3     346  TIP196     -0.4105
 19949 H1         -11.5430   -22.6310   -17.0260 H       346  TIP196      0.2052
 19950 H2         -12.0490   -21.5900   -16.0510 H       346  TIP196      0.2052
 19951 OH2          2.0180    10.4260    51.3750 O.3     347  TIP197     -0.4105
 19952 H1           1.4360    10.3520    52.1310 H       347  TIP197      0.2052
 19953 H2           2.4330     9.5660    51.3060 H       347  TIP197      0.2052
 19954 OH2        -19.4970   -11.8430   -52.1610 O.3     348  TIP198     -0.4105
 19955 H1         -19.6650   -12.0710   -51.2470 H       348  TIP198      0.2052
 19956 H2         -18.7840   -12.4240   -52.4270 H       348  TIP198      0.2052
 19957 OH2          8.8970     4.4350   -33.1190 O.3     349  TIP199     -0.4105
 19958 H1           9.4660     3.6660   -33.1360 H       349  TIP199      0.2052
 19959 H2           9.3440     5.0510   -32.5380 H       349  TIP199      0.2052
 19960 OH2         -9.9500   -10.1070   -43.6830 O.3     350  TIP200     -0.4105
 19961 H1         -10.2130   -10.2870   -42.7800 H       350  TIP200      0.2052
 19962 H2         -10.0480    -9.1600   -43.7780 H       350  TIP200      0.2052
 19963 OH2          5.4490    21.6280   -40.6530 O.3     351  TIP201     -0.4105
 19964 H1           5.7250    21.7960   -41.5540 H       351  TIP201      0.2052
 19965 H2           4.5610    21.9830   -40.6040 H       351  TIP201      0.2052
 19966 OH2         24.5320   -24.1620   -27.3430 O.3     352  TIP202     -0.4105
 19967 H1          25.0660   -24.3210   -28.1220 H       352  TIP202      0.2052
 19968 H2          25.1470   -23.8160   -26.6970 H       352  TIP202      0.2052
 19969 OH2         -6.4990     0.5690   -14.4990 O.3     353  TIP203     -0.4105
 19970 H1          -6.8420     1.3110   -14.0010 H       353  TIP203      0.2052
 19971 H2          -6.1320    -0.0160   -13.8360 H       353  TIP203      0.2052
 19972 OH2        -12.1890   -16.3090   -32.6370 O.3     354  TIP204     -0.4105
 19973 H1         -11.3610   -16.6300   -32.2790 H       354  TIP204      0.2052
 19974 H2         -12.8560   -16.8650   -32.2340 H       354  TIP204      0.2052
 19975 OH2        -31.0890    25.0450   -37.6550 O.3     355  TIP205     -0.4105
 19976 H1         -30.5430    25.8280   -37.5820 H       355  TIP205      0.2052
 19977 H2         -31.1880    24.9100   -38.5980 H       355  TIP205      0.2052
 19978 OH2        -17.7720    31.5760   -49.2420 O.3     356  TIP206     -0.4105
 19979 H1         -18.0560    31.6770   -50.1500 H       356  TIP206      0.2052
 19980 H2         -17.3850    30.7010   -49.2070 H       356  TIP206      0.2052
 19981 OH2        -17.4940     1.7650    28.1000 O.3     357  TIP207     -0.4105
 19982 H1         -17.1050     2.6160    27.8950 H       357  TIP207      0.2052
 19983 H2         -17.4760     1.2870    27.2710 H       357  TIP207      0.2052
 19984 OH2         -1.2870    -7.3700    52.1160 O.3     358  TIP208     -0.4105
 19985 H1          -1.2940    -7.5980    51.1870 H       358  TIP208      0.2052
 19986 H2          -2.1960    -7.4760    52.3960 H       358  TIP208      0.2052
 19987 OH2          1.0930     4.0540    34.4350 O.3     359  TIP209     -0.4105
 19988 H1           1.6550     4.5630    35.0190 H       359  TIP209      0.2052
 19989 H2           1.6300     3.3040    34.1790 H       359  TIP209      0.2052
 19990 OH2        -18.0310    10.4990    50.2820 O.3     360  TIP210     -0.4105
 19991 H1         -18.9190    10.7370    50.0140 H       360  TIP210      0.2052
 19992 H2         -18.1240    10.2130    51.1910 H       360  TIP210      0.2052
 19993 OH2        -30.4340     4.5620    25.9000 O.3     361  TIP211     -0.4105
 19994 H1         -31.2890     4.2920    25.5640 H       361  TIP211      0.2052
 19995 H2         -30.5750     5.4480    26.2330 H       361  TIP211      0.2052
 19996 OH2        -22.8670    26.5450   -29.7000 O.3     362  TIP212     -0.4105
 19997 H1         -22.2380    25.9130   -29.3510 H       362  TIP212      0.2052
 19998 H2         -23.3040    26.9000   -28.9260 H       362  TIP212      0.2052
 19999 OH2         -8.8760   -31.4530   -45.8550 O.3     363  TIP213     -0.4105
 20000 H1          -9.1700   -31.6190   -44.9600 H       363  TIP213      0.2052
 20001 H2          -9.6810   -31.2970   -46.3480 H       363  TIP213      0.2052
 20002 OH2        -28.5790    20.8890   -18.3100 O.3     364  TIP214     -0.4105
 20003 H1         -28.7030    20.3970   -17.4980 H       364  TIP214      0.2052
 20004 H2         -29.2980    20.6080   -18.8740 H       364  TIP214      0.2052
 20005 OH2         24.5540   -30.0690   -52.6760 O.3     365  TIP215     -0.4105
 20006 H1          25.4370   -29.7010   -52.6880 H       365  TIP215      0.2052
 20007 H2          23.9770   -29.3140   -52.7890 H       365  TIP215      0.2052
 20008 OH2         -0.3880     5.1110    32.3690 O.3     366  TIP216     -0.4105
 20009 H1           0.0260     4.7970    33.1720 H       366  TIP216      0.2052
 20010 H2          -0.5780     6.0340    32.5410 H       366  TIP216      0.2052
 20011 OH2        -26.5370   -10.8680    23.2900 O.3     367  TIP217     -0.4105
 20012 H1         -26.4770   -10.6820    24.2270 H       367  TIP217      0.2052
 20013 H2         -25.7530   -11.3820    23.0970 H       367  TIP217      0.2052
 20014 OH2         -8.2580    31.3590    42.2660 O.3     368  TIP218     -0.4105
 20015 H1          -7.9940    32.2110    41.9170 H       368  TIP218      0.2052
 20016 H2          -9.2020    31.3190    42.1110 H       368  TIP218      0.2052
 20017 OH2        -25.7780   -13.0350   -34.9470 O.3     369  TIP219     -0.4105
 20018 H1         -25.0450   -13.4810   -34.5240 H       369  TIP219      0.2052
 20019 H2         -26.3360   -13.7430   -35.2700 H       369  TIP219      0.2052
 20020 OH2        -26.6890    29.9830    47.9810 O.3     370  TIP220     -0.4105
 20021 H1         -27.4370    30.5640    47.8410 H       370  TIP220      0.2052
 20022 H2         -27.0280    29.2890    48.5460 H       370  TIP220      0.2052
 20023 OH2         29.3720   -22.9160    50.2080 O.3     371  TIP221     -0.4105
 20024 H1          30.2960   -23.1350    50.0870 H       371  TIP221      0.2052
 20025 H2          28.9150   -23.4330    49.5440 H       371  TIP221      0.2052
 20026 OH2         17.8400     6.5930   -20.8960 O.3     372  TIP222     -0.4105
 20027 H1          17.6290     6.8710   -21.7870 H       372  TIP222      0.2052
 20028 H2          18.0030     7.4080   -20.4220 H       372  TIP222      0.2052
 20029 OH2         28.8120   -21.1300    46.5670 O.3     373  TIP223     -0.4105
 20030 H1          29.7330   -21.3010    46.7610 H       373  TIP223      0.2052
 20031 H2          28.7900   -20.2130    46.2950 H       373  TIP223      0.2052
 20032 OH2         -1.6550    22.7560    53.6900 O.3     374  TIP224     -0.4105
 20033 H1          -2.3510    22.7030    53.0340 H       374  TIP224      0.2052
 20034 H2          -2.1170    22.7870    54.5270 H       374  TIP224      0.2052
 20035 OH2         31.2440    28.1710    46.7800 O.3     375  TIP225     -0.4105
 20036 H1          31.9250    27.8960    46.1670 H       375  TIP225      0.2052
 20037 H2          30.9460    27.3570    47.1870 H       375  TIP225      0.2052
 20038 OH2         21.5170    23.3390    36.1830 O.3     376  TIP226     -0.4105
 20039 H1          21.4280    23.5670    35.2580 H       376  TIP226      0.2052
 20040 H2          22.1130    22.5900    36.1890 H       376  TIP226      0.2052
 20041 OH2         27.0040   -14.6630   -45.4050 O.3     377  TIP227     -0.4105
 20042 H1          27.3290   -13.8040   -45.6750 H       377  TIP227      0.2052
 20043 H2          27.0310   -15.1920   -46.2030 H       377  TIP227      0.2052
 20044 OH2         25.8970    -8.5010   -20.8190 O.3     378  TIP228     -0.4105
 20045 H1          25.0140    -8.8380   -20.9760 H       378  TIP228      0.2052
 20046 H2          26.3680    -9.2370   -20.4290 H       378  TIP228      0.2052
 20047 OH2         -0.0750    -7.8270    48.1780 O.3     379  TIP229     -0.4105
 20048 H1          -0.6170    -7.4010    47.5130 H       379  TIP229      0.2052
 20049 H2          -0.6710    -7.9810    48.9100 H       379  TIP229      0.2052
 20050 OH2        -18.0770    -3.3330   -39.6680 O.3     380  TIP230     -0.4105
 20051 H1         -17.1790    -3.4740   -39.3690 H       380  TIP230      0.2052
 20052 H2         -18.4350    -4.2140   -39.7770 H       380  TIP230      0.2052
 20053 OH2          9.2710   -10.1790    42.4740 O.3     381  TIP231     -0.4105
 20054 H1           8.9990    -9.5730    43.1630 H       381  TIP231      0.2052
 20055 H2          10.1090   -10.5270    42.7770 H       381  TIP231      0.2052
 20056 OH2        -10.3420   -29.6210    43.5210 O.3     382  TIP232     -0.4105
 20057 H1          -9.4730   -29.9910    43.6740 H       382  TIP232      0.2052
 20058 H2         -10.4100   -29.5540    42.5690 H       382  TIP232      0.2052
 20059 OH2          3.1810    25.7880   -50.2250 O.3     383  TIP233     -0.4105
 20060 H1           3.5610    25.3980   -49.4370 H       383  TIP233      0.2052
 20061 H2           3.6250    26.6310   -50.3130 H       383  TIP233      0.2052
 20062 OH2        -25.6110   -21.7850    48.2560 O.3     384  TIP234     -0.4105
 20063 H1         -25.2970   -20.9980    47.8100 H       384  TIP234      0.2052
 20064 H2         -26.1340   -22.2410    47.5970 H       384  TIP234      0.2052
 20065 OH2         -8.3560   -22.4730    17.8810 O.3     385  TIP235     -0.4105
 20066 H1          -9.0730   -22.1690    17.3250 H       385  TIP235      0.2052
 20067 H2          -8.2580   -23.4000    17.6610 H       385  TIP235      0.2052
 20068 OH2         10.2420    -6.1930    -7.3050 O.3     386  TIP236     -0.4105
 20069 H1           9.7950    -5.5120    -6.8020 H       386  TIP236      0.2052
 20070 H2          10.2570    -5.8580    -8.2020 H       386  TIP236      0.2052
 20071 OH2          2.8210    -0.0260   -34.2100 O.3     387  TIP237     -0.4105
 20072 H1           2.7600    -0.8370   -33.7050 H       387  TIP237      0.2052
 20073 H2           3.6670     0.3480   -33.9620 H       387  TIP237      0.2052
 20074 OH2         20.2590   -13.2110    48.5360 O.3     388  TIP238     -0.4105
 20075 H1          19.3150   -13.3220    48.4250 H       388  TIP238      0.2052
 20076 H2          20.4040   -13.3110    49.4770 H       388  TIP238      0.2052
 20077 OH2         27.4820   -15.8300   -27.4210 O.3     389  TIP239     -0.4105
 20078 H1          27.1660   -15.1240   -26.8560 H       389  TIP239      0.2052
 20079 H2          26.7160   -16.0880   -27.9330 H       389  TIP239      0.2052
 20080 OH2          7.7920     9.9890   -20.3010 O.3     390  TIP240     -0.4105
 20081 H1           7.3680    10.7710   -20.6540 H       390  TIP240      0.2052
 20082 H2           7.4000     9.8740   -19.4350 H       390  TIP240      0.2052
 20083 OH2        -16.4500     0.3560   -44.8330 O.3     391  TIP241     -0.4105
 20084 H1         -15.9000     0.7460   -45.5120 H       391  TIP241      0.2052
 20085 H2         -17.3450     0.4710   -45.1540 H       391  TIP241      0.2052
 20086 OH2         -2.5890     8.0550   -29.0750 O.3     392  TIP242     -0.4105
 20087 H1          -2.4620     7.1120   -29.1710 H       392  TIP242      0.2052
 20088 H2          -3.5220     8.1530   -28.8810 H       392  TIP242      0.2052
 20089 OH2        -32.7190    -3.6520    14.2380 O.3     393  TIP243     -0.4105
 20090 H1         -32.5090    -4.5350    14.5400 H       393  TIP243      0.2052
 20091 H2         -32.0890    -3.4810    13.5380 H       393  TIP243      0.2052
 20092 OH2          8.8660    25.4080    50.7620 O.3     394  TIP244     -0.4105
 20093 H1           9.0300    25.7630    51.6350 H       394  TIP244      0.2052
 20094 H2           9.6810    24.9650    50.5260 H       394  TIP244      0.2052
 20095 OH2        -20.6160     9.3020   -45.0800 O.3     395  TIP245     -0.4105
 20096 H1         -20.9100    10.0420   -44.5480 H       395  TIP245      0.2052
 20097 H2         -20.0030     9.6850   -45.7070 H       395  TIP245      0.2052
 20098 OH2        -23.4330    28.2090    30.2780 O.3     396  TIP246     -0.4105
 20099 H1         -23.5990    29.1030    29.9800 H       396  TIP246      0.2052
 20100 H2         -24.2870    27.7790    30.2360 H       396  TIP246      0.2052
 20101 OH2         -4.0640    -0.5110    42.2930 O.3     397  TIP247     -0.4105
 20102 H1          -4.0630    -1.3190    41.7810 H       397  TIP247      0.2052
 20103 H2          -4.6020    -0.7120    43.0590 H       397  TIP247      0.2052
 20104 OH2          7.9070   -32.8790   -19.8830 O.3     398  TIP248     -0.4105
 20105 H1           7.5830   -32.9790   -18.9870 H       398  TIP248      0.2052
 20106 H2           7.9050   -31.9340   -20.0340 H       398  TIP248      0.2052
 20107 OH2         27.1900     5.4440   -39.9120 O.3     399  TIP249     -0.4105
 20108 H1          26.6330     6.0560   -40.3920 H       399  TIP249      0.2052
 20109 H2          27.4310     4.7810   -40.5590 H       399  TIP249      0.2052
 20110 OH2         16.7560     5.4350   -46.6180 O.3     400  TIP250     -0.4105
 20111 H1          16.9350     5.6350   -45.6990 H       400  TIP250      0.2052
 20112 H2          17.6100     5.2040   -46.9830 H       400  TIP250      0.2052
 20113 OH2         22.2750    28.6680   -45.4270 O.3     401  TIP251     -0.4105
 20114 H1          22.1190    27.7410   -45.6060 H       401  TIP251      0.2052
 20115 H2          23.1770    28.7040   -45.1110 H       401  TIP251      0.2052
 20116 OH2          2.2940   -21.2300   -29.6530 O.3     402  TIP252     -0.4105
 20117 H1           1.9270   -21.4880   -28.8080 H       402  TIP252      0.2052
 20118 H2           1.5560   -21.2790   -30.2610 H       402  TIP252      0.2052
 20119 OH2        -15.4200    28.8060    30.2160 O.3     403  TIP253     -0.4105
 20120 H1         -14.4890    28.9060    30.0220 H       403  TIP253      0.2052
 20121 H2         -15.8500    29.4770    29.6870 H       403  TIP253      0.2052
 20122 OH2        -14.5190    26.0730    50.3530 O.3     404  TIP254     -0.4105
 20123 H1         -14.1560    25.2000    50.2050 H       404  TIP254      0.2052
 20124 H2         -14.1100    26.3690    51.1660 H       404  TIP254      0.2052
 20125 OH2        -14.5800    28.7830   -23.4700 O.3     405  TIP255     -0.4105
 20126 H1         -15.4370    28.5170   -23.8040 H       405  TIP255      0.2052
 20127 H2         -14.1810    27.9710   -23.1590 H       405  TIP255      0.2052
 20128 OH2         22.9300   -26.0960    46.7070 O.3     406  TIP256     -0.4105
 20129 H1          23.5940   -25.5480    47.1270 H       406  TIP256      0.2052
 20130 H2          22.4450   -26.4860    47.4340 H       406  TIP256      0.2052
 20131 OH2        -20.3980    17.8920    22.4650 O.3     407  TIP257     -0.4105
 20132 H1         -20.6940    17.3490    23.1950 H       407  TIP257      0.2052
 20133 H2         -19.6370    17.4290    22.1140 H       407  TIP257      0.2052
 20134 OH2         22.7870   -18.7560   -51.0860 O.3     408  TIP258     -0.4105
 20135 H1          23.3650   -19.4300   -50.7280 H       408  TIP258      0.2052
 20136 H2          22.8750   -18.0190   -50.4820 H       408  TIP258      0.2052
 20137 OH2        -15.9070    31.5570    21.8150 O.3     409  TIP259     -0.4105
 20138 H1         -15.6780    31.7130    20.8990 H       409  TIP259      0.2052
 20139 H2         -15.7160    32.3850    22.2560 H       409  TIP259      0.2052
 20140 OH2        -14.5980    25.2520   -44.7060 O.3     410  TIP260     -0.4105
 20141 H1         -14.3010    26.1320   -44.9360 H       410  TIP260      0.2052
 20142 H2         -13.8500    24.8550   -44.2600 H       410  TIP260      0.2052
 20143 OH2        -22.1660     5.0700   -28.0880 O.3     411  TIP261     -0.4105
 20144 H1         -22.1450     5.7100   -28.8000 H       411  TIP261      0.2052
 20145 H2         -22.5270     5.5510   -27.3440 H       411  TIP261      0.2052
 20146 OH2         -0.7940   -31.4300    44.4890 O.3     412  TIP262     -0.4105
 20147 H1          -0.7170   -30.6840    43.8940 H       412  TIP262      0.2052
 20148 H2          -1.0700   -32.1560    43.9300 H       412  TIP262      0.2052
 20149 OH2         10.3620   -11.8980   -49.5040 O.3     413  TIP263     -0.4105
 20150 H1           9.7830   -12.5680   -49.8690 H       413  TIP263      0.2052
 20151 H2           9.9450   -11.6440   -48.6810 H       413  TIP263      0.2052
 20152 OH2        -13.3260    15.1760    21.4930 O.3     414  TIP264     -0.4105
 20153 H1         -14.2780    15.1380    21.4000 H       414  TIP264      0.2052
 20154 H2         -13.0700    14.2810    21.7160 H       414  TIP264      0.2052
 20155 OH2        -30.7270     1.2340    47.5980 O.3     415  TIP265     -0.4105
 20156 H1         -29.9920     1.3670    47.0000 H       415  TIP265      0.2052
 20157 H2         -30.9950     2.1180    47.8490 H       415  TIP265      0.2052
 20158 OH2          8.0440    -1.1780    24.1660 O.3     416  TIP266     -0.4105
 20159 H1           7.9180    -1.5250    23.2830 H       416  TIP266      0.2052
 20160 H2           7.1830    -1.2500    24.5770 H       416  TIP266      0.2052
 20161 OH2         -7.4250   -28.3250    36.5560 O.3     417  TIP267     -0.4105
 20162 H1          -7.4700   -27.5050    37.0480 H       417  TIP267      0.2052
 20163 H2          -6.6770   -28.2120    35.9700 H       417  TIP267      0.2052
 20164 OH2          9.6120   -18.2250   -23.1560 O.3     418  TIP268     -0.4105
 20165 H1           8.8270   -18.7290   -22.9450 H       418  TIP268      0.2052
 20166 H2          10.1670   -18.3090   -22.3810 H       418  TIP268      0.2052
 20167 OH2        -24.9120    20.7060    48.8370 O.3     419  TIP269     -0.4105
 20168 H1         -24.0160    20.3960    48.9680 H       419  TIP269      0.2052
 20169 H2         -24.9270    21.0240    47.9340 H       419  TIP269      0.2052
 20170 OH2         -8.0260     8.6740    51.9740 O.3     420  TIP270     -0.4105
 20171 H1          -8.9470     8.9000    52.1040 H       420  TIP270      0.2052
 20172 H2          -7.5630     9.1500    52.6630 H       420  TIP270      0.2052
 20173 OH2        -20.5020   -26.2210   -24.7520 O.3     421  TIP271     -0.4105
 20174 H1         -20.1660   -26.1100   -25.6420 H       421  TIP271      0.2052
 20175 H2         -20.5110   -25.3370   -24.3860 H       421  TIP271      0.2052
 20176 OH2        -11.8490    32.0790   -26.7070 O.3     422  TIP272     -0.4105
 20177 H1         -12.2810    31.2260   -26.6650 H       422  TIP272      0.2052
 20178 H2         -10.9430    31.8780   -26.9440 H       422  TIP272      0.2052
 20179 OH2         27.7380   -28.9980    24.7940 O.3     423  TIP273     -0.4105
 20180 H1          28.0910   -28.7300    23.9460 H       423  TIP273      0.2052
 20181 H2          27.5240   -29.9250    24.6820 H       423  TIP273      0.2052
 20182 OH2          5.3120    -1.2630    42.5760 O.3     424  TIP274     -0.4105
 20183 H1           5.3160    -2.1770    42.8620 H       424  TIP274      0.2052
 20184 H2           6.1820    -1.1240    42.2040 H       424  TIP274      0.2052
 20185 OH2         29.4290   -26.0400   -30.7990 O.3     425  TIP275     -0.4105
 20186 H1          30.2420   -26.0360   -31.3040 H       425  TIP275      0.2052
 20187 H2          29.6610   -26.4680   -29.9750 H       425  TIP275      0.2052
 20188 OH2          2.8920   -32.9770   -51.3150 O.3     426  TIP276     -0.4105
 20189 H1           2.6000   -32.0650   -51.3310 H       426  TIP276      0.2052
 20190 H2           3.6240   -33.0050   -51.9310 H       426  TIP276      0.2052
 20191 OH2         -5.5420    11.7970   -53.6570 O.3     427  TIP277     -0.4105
 20192 H1          -5.7150    12.6200   -53.2000 H       427  TIP277      0.2052
 20193 H2          -4.7400    11.4640   -53.2550 H       427  TIP277      0.2052
 20194 OH2         14.0650   -22.6480   -21.4070 O.3     428  TIP278     -0.4105
 20195 H1          14.3430   -22.5620   -22.3180 H       428  TIP278      0.2052
 20196 H2          13.3770   -21.9910   -21.3020 H       428  TIP278      0.2052
 20197 OH2         24.6530    10.9380    29.4210 O.3     429  TIP279     -0.4105
 20198 H1          24.2220    10.1780    29.8120 H       429  TIP279      0.2052
 20199 H2          25.2640    11.2410    30.0930 H       429  TIP279      0.2052
 20200 OH2         18.8420     7.1480    27.1450 O.3     430  TIP280     -0.4105
 20201 H1          18.7040     7.2040    26.2000 H       430  TIP280      0.2052
 20202 H2          18.9420     8.0570    27.4280 H       430  TIP280      0.2052
 20203 OH2         26.1810    18.1710   -27.0970 O.3     431  TIP281     -0.4105
 20204 H1          26.8210    18.8470   -27.3190 H       431  TIP281      0.2052
 20205 H2          25.5140    18.2390   -27.7800 H       431  TIP281      0.2052
 20206 OH2         24.8580    -8.1250    27.0380 O.3     432  TIP282     -0.4105
 20207 H1          24.7280    -7.5160    27.7650 H       432  TIP282      0.2052
 20208 H2          24.1680    -7.9040    26.4130 H       432  TIP282      0.2052
 20209 OH2         23.3430    26.3100   -36.3310 O.3     433  TIP283     -0.4105
 20210 H1          23.8920    25.6720   -36.7880 H       433  TIP283      0.2052
 20211 H2          23.8980    26.6420   -35.6260 H       433  TIP283      0.2052
 20212 OH2         28.2110     3.5140   -20.6210 O.3     434  TIP284     -0.4105
 20213 H1          28.0910     2.9790   -19.8360 H       434  TIP284      0.2052
 20214 H2          27.6520     4.2780   -20.4790 H       434  TIP284      0.2052
 20215 OH2         -5.5070    -8.6640    50.5770 O.3     435  TIP285     -0.4105
 20216 H1          -6.1830    -9.3060    50.7960 H       435  TIP285      0.2052
 20217 H2          -5.4980    -8.6410    49.6210 H       435  TIP285      0.2052
 20218 OH2          0.3060    20.9440    33.9120 O.3     436  TIP286     -0.4105
 20219 H1          -0.2470    20.1640    33.9440 H       436  TIP286      0.2052
 20220 H2           0.0550    21.3830    33.0990 H       436  TIP286      0.2052
 20221 OH2          9.7200    28.5160   -40.9720 O.3     437  TIP287     -0.4105
 20222 H1           9.9350    29.3280   -40.5130 H       437  TIP287      0.2052
 20223 H2           8.8400    28.2930   -40.6660 H       437  TIP287      0.2052
 20224 OH2         15.5850    29.1660    46.4850 O.3     438  TIP288     -0.4105
 20225 H1          15.8220    28.2490    46.3430 H       438  TIP288      0.2052
 20226 H2          15.4880    29.2440    47.4340 H       438  TIP288      0.2052
 20227 OH2         -5.4830   -22.8800    35.9280 O.3     439  TIP289     -0.4105
 20228 H1          -4.6050   -22.5770    35.6970 H       439  TIP289      0.2052
 20229 H2          -5.4920   -23.8040    35.6790 H       439  TIP289      0.2052
 20230 OH2        -21.5590   -10.0960    50.0300 O.3     440  TIP290     -0.4105
 20231 H1         -20.6440   -10.3710    50.0860 H       440  TIP290      0.2052
 20232 H2         -21.6710    -9.8140    49.1220 H       440  TIP290      0.2052
 20233 OH2        -11.9920    13.0920    42.0990 O.3     441  TIP291     -0.4105
 20234 H1         -12.7230    12.4920    41.9510 H       441  TIP291      0.2052
 20235 H2         -12.3900    13.8610    42.5060 H       441  TIP291      0.2052
 20236 OH2         -8.1920    -8.5940    46.6690 O.3     442  TIP292     -0.4105
 20237 H1          -7.5140    -8.5090    47.3400 H       442  TIP292      0.2052
 20238 H2          -8.6870    -9.3720    46.9260 H       442  TIP292      0.2052
 20239 OH2         11.8570    27.1980    27.0810 O.3     443  TIP293     -0.4105
 20240 H1          12.2010    26.7010    26.3390 H       443  TIP293      0.2052
 20241 H2          11.8860    28.1110    26.7930 H       443  TIP293      0.2052
 20242 OH2        -23.2660    -0.1260   -32.8570 O.3     444  TIP294     -0.4105
 20243 H1         -22.7710    -0.1180   -32.0380 H       444  TIP294      0.2052
 20244 H2         -22.8130     0.5040   -33.4170 H       444  TIP294      0.2052
 20245 OH2          2.2620     4.8010    51.6400 O.3     445  TIP295     -0.4105
 20246 H1           1.8970     4.0300    51.2070 H       445  TIP295      0.2052
 20247 H2           2.9220     4.4510    52.2380 H       445  TIP295      0.2052
 20248 OH2         -1.0240   -22.2870    32.9010 O.3     446  TIP296     -0.4105
 20249 H1          -0.3660   -22.0930    33.5680 H       446  TIP296      0.2052
 20250 H2          -1.1050   -23.2400    32.9130 H       446  TIP296      0.2052
 20251 OH2         22.3580     7.2030   -15.2240 O.3     447  TIP297     -0.4105
 20252 H1          22.0730     7.3330   -14.3200 H       447  TIP297      0.2052
 20253 H2          22.0200     6.3390   -15.4610 H       447  TIP297      0.2052
 20254 OH2          1.8120    -0.9940    46.8250 O.3     448  TIP298     -0.4105
 20255 H1           2.4390    -0.4330    47.2820 H       448  TIP298      0.2052
 20256 H2           2.0650    -1.8840    47.0680 H       448  TIP298      0.2052
 20257 OH2         31.8490    -7.6600   -22.9790 O.3     449  TIP299     -0.4105
 20258 H1          31.1910    -7.8450   -23.6480 H       449  TIP299      0.2052
 20259 H2          32.0570    -6.7320   -23.0960 H       449  TIP299      0.2052
 20260 OH2        -15.2950    10.3240    49.7600 O.3     450  TIP300     -0.4105
 20261 H1         -14.8510    10.6540    50.5410 H       450  TIP300      0.2052
 20262 H2         -16.2260    10.3510    49.9830 H       450  TIP300      0.2052
 20263 OH2          1.0900   -30.0490   -46.7470 O.3     451  TIP301     -0.4105
 20264 H1           1.3080   -30.7140   -47.3990 H       451  TIP301      0.2052
 20265 H2           0.1340   -30.0000   -46.7650 H       451  TIP301      0.2052
 20266 OH2         -2.6700     7.8750   -18.4170 O.3     452  TIP302     -0.4105
 20267 H1          -2.3740     7.8640   -19.3270 H       452  TIP302      0.2052
 20268 H2          -3.4700     7.3490   -18.4180 H       452  TIP302      0.2052
 20269 OH2         30.3330    32.5000    52.6390 O.3     453  TIP303     -0.4105
 20270 H1          30.1780    31.5760    52.8350 H       453  TIP303      0.2052
 20271 H2          29.5590    32.7740    52.1470 H       453  TIP303      0.2052
 20272 OH2         -3.2300    24.4040    18.7790 O.3     454  TIP304     -0.4105
 20273 H1          -2.6580    25.1620    18.9000 H       454  TIP304      0.2052
 20274 H2          -2.7340    23.6690    19.1390 H       454  TIP304      0.2052
 20275 OH2          7.1130   -25.0050    25.6380 O.3     455  TIP305     -0.4105
 20276 H1           6.9580   -25.5140    24.8420 H       455  TIP305      0.2052
 20277 H2           6.2720   -25.0130    26.0950 H       455  TIP305      0.2052
 20278 OH2         -0.2860     4.2160    53.4350 O.3     456  TIP306     -0.4105
 20279 H1          -0.1600     3.3810    53.8870 H       456  TIP306      0.2052
 20280 H2           0.5110     4.7120    53.6220 H       456  TIP306      0.2052
 20281 OH2         13.1420   -27.4630   -33.4520 O.3     457  TIP307     -0.4105
 20282 H1          12.6410   -26.6610   -33.3070 H       457  TIP307      0.2052
 20283 H2          12.4800   -28.1290   -33.6380 H       457  TIP307      0.2052
 20284 OH2         15.6980   -13.4590    29.3240 O.3     458  TIP308     -0.4105
 20285 H1          15.9230   -14.1730    29.9210 H       458  TIP308      0.2052
 20286 H2          16.4210   -13.4340    28.6970 H       458  TIP308      0.2052
 20287 OH2         21.7650    14.3050   -30.8000 O.3     459  TIP309     -0.4105
 20288 H1          22.3270    14.8040   -30.2080 H       459  TIP309      0.2052
 20289 H2          20.8760    14.4780   -30.4900 H       459  TIP309      0.2052
 20290 OH2        -18.4690    19.4940   -22.6330 O.3     460  TIP310     -0.4105
 20291 H1         -17.9080    19.0550   -21.9940 H       460  TIP310      0.2052
 20292 H2         -17.8730    20.0500   -23.1350 H       460  TIP310      0.2052
 20293 OH2         25.3850     2.6960   -32.2370 O.3     461  TIP311     -0.4105
 20294 H1          26.0400     2.4790   -32.9000 H       461  TIP311      0.2052
 20295 H2          25.8690     2.6940   -31.4110 H       461  TIP311      0.2052
 20296 OH2          8.6520    -6.4200    46.0770 O.3     462  TIP312     -0.4105
 20297 H1           9.4080    -7.0070    46.0860 H       462  TIP312      0.2052
 20298 H2           8.0140    -6.8590    45.5150 H       462  TIP312      0.2052
 20299 OH2         26.8770   -20.4130    49.5550 O.3     463  TIP313     -0.4105
 20300 H1          26.9060   -21.1930    49.0010 H       463  TIP313      0.2052
 20301 H2          27.0710   -19.6880    48.9610 H       463  TIP313      0.2052
 20302 OH2         14.8850    24.9980   -32.9800 O.3     464  TIP314     -0.4105
 20303 H1          14.7130    24.2570   -32.3980 H       464  TIP314      0.2052
 20304 H2          14.0650    25.1210   -33.4590 H       464  TIP314      0.2052
 20305 OH2          9.5800   -13.8240    33.3510 O.3     465  TIP315     -0.4105
 20306 H1           9.1180   -13.2010    33.9120 H       465  TIP315      0.2052
 20307 H2           8.9300   -14.0900    32.7000 H       465  TIP315      0.2052
 20308 OH2         -3.6140    24.2840    26.4330 O.3     466  TIP316     -0.4105
 20309 H1          -3.5260    23.4860    26.9530 H       466  TIP316      0.2052
 20310 H2          -4.1500    24.0250    25.6840 H       466  TIP316      0.2052
 20311 OH2         30.0710    19.7070   -21.1090 O.3     467  TIP317     -0.4105
 20312 H1          29.5950    19.5740   -21.9290 H       467  TIP317      0.2052
 20313 H2          30.1960    20.6550   -21.0560 H       467  TIP317      0.2052
 20314 OH2         26.5790     0.2070    13.5870 O.3     468  TIP318     -0.4105
 20315 H1          26.9240     0.1240    14.4760 H       468  TIP318      0.2052
 20316 H2          26.3800    -0.6910    13.3220 H       468  TIP318      0.2052
 20317 OH2         -8.1350    11.4100   -30.5920 O.3     469  TIP319     -0.4105
 20318 H1          -8.5610    12.2590   -30.7110 H       469  TIP319      0.2052
 20319 H2          -8.7910    10.7710   -30.8700 H       469  TIP319      0.2052
 20320 OH2         -3.4320    19.9210   -42.7230 O.3     470  TIP320     -0.4105
 20321 H1          -4.1170    20.2910   -42.1670 H       470  TIP320      0.2052
 20322 H2          -3.6300    18.9850   -42.7560 H       470  TIP320      0.2052
 20323 OH2          9.1600    -5.7740   -55.0670 O.3     471  TIP321     -0.4105
 20324 H1           9.5850    -6.1410   -55.8430 H       471  TIP321      0.2052
 20325 H2           9.2390    -6.4590   -54.4030 H       471  TIP321      0.2052
 20326 OH2         -6.8750   -30.6000    54.6940 O.3     472  TIP322     -0.4105
 20327 H1          -7.6360   -30.8830    54.1880 H       472  TIP322      0.2052
 20328 H2          -6.1350   -30.7140    54.0980 H       472  TIP322      0.2052
 20329 OH2        -12.4930   -24.8320   -51.3130 O.3     473  TIP323     -0.4105
 20330 H1         -13.1580   -25.2760   -51.8390 H       473  TIP323      0.2052
 20331 H2         -11.7900   -24.6330   -51.9320 H       473  TIP323      0.2052
 20332 OH2         -0.0900     7.3120   -42.7990 O.3     474  TIP324     -0.4105
 20333 H1           0.6230     7.3540   -43.4360 H       474  TIP324      0.2052
 20334 H2          -0.8870     7.3860   -43.3250 H       474  TIP324      0.2052
 20335 OH2        -17.2140     0.1000    25.9890 O.3     475  TIP325     -0.4105
 20336 H1         -17.1150    -0.0730    25.0520 H       475  TIP325      0.2052
 20337 H2         -16.5670    -0.4680    26.4070 H       475  TIP325      0.2052
 20338 OH2         30.7970    11.0020    46.3790 O.3     476  TIP326     -0.4105
 20339 H1          30.7850    11.7970    45.8460 H       476  TIP326      0.2052
 20340 H2          31.2270    10.3490    45.8270 H       476  TIP326      0.2052
 20341 OH2         21.2230   -32.0770    41.1080 O.3     477  TIP327     -0.4105
 20342 H1          20.3140   -32.2680    41.3400 H       477  TIP327      0.2052
 20343 H2          21.7410   -32.6260    41.6960 H       477  TIP327      0.2052
 20344 OH2          0.9400   -27.0710   -41.7790 O.3     478  TIP328     -0.4105
 20345 H1           0.0690   -26.8340   -42.0980 H       478  TIP328      0.2052
 20346 H2           0.8160   -27.2370   -40.8450 H       478  TIP328      0.2052
 20347 OH2        -17.9880    24.1840    24.1260 O.3     479  TIP329     -0.4105
 20348 H1         -17.1410    24.6010    24.2820 H       479  TIP329      0.2052
 20349 H2         -18.0690    23.5340    24.8240 H       479  TIP329      0.2052
 20350 OH2         -5.4080   -29.3040   -36.8830 O.3     480  TIP330     -0.4105
 20351 H1          -4.6680   -29.7470   -37.2990 H       480  TIP330      0.2052
 20352 H2          -5.1990   -28.3720   -36.9510 H       480  TIP330      0.2052
 20353 OH2         16.2490    26.5690   -29.2220 O.3     481  TIP331     -0.4105
 20354 H1          15.9590    25.7030   -28.9340 H       481  TIP331      0.2052
 20355 H2          16.9910    26.7750   -28.6540 H       481  TIP331      0.2052
 20356 OH2         23.5480    19.8400   -24.3010 O.3     482  TIP332     -0.4105
 20357 H1          23.1480    19.2510   -23.6610 H       482  TIP332      0.2052
 20358 H2          22.9510    19.8220   -25.0490 H       482  TIP332      0.2052
 20359 OH2        -30.5710    18.6900   -53.4760 O.3     483  TIP333     -0.4105
 20360 H1         -30.0800    19.0680   -52.7460 H       483  TIP333      0.2052
 20361 H2         -31.4820    18.7040   -53.1850 H       483  TIP333      0.2052
 20362 OH2         29.2720    16.6990    28.6590 O.3     484  TIP334     -0.4105
 20363 H1          30.0930    17.1730    28.7890 H       484  TIP334      0.2052
 20364 H2          29.4620    15.8050    28.9460 H       484  TIP334      0.2052
 20365 OH2          2.5530    -3.0440    -0.2030 O.3     485  TIP335     -0.4105
 20366 H1           2.9200    -3.2500    -1.0630 H       485  TIP335      0.2052
 20367 H2           2.1500    -2.1830    -0.3150 H       485  TIP335      0.2052
 20368 OH2          3.8050   -25.8370    40.3740 O.3     486  TIP336     -0.4105
 20369 H1           3.6480   -24.9120    40.5640 H       486  TIP336      0.2052
 20370 H2           3.4940   -25.9540    39.4770 H       486  TIP336      0.2052
 20371 OH2         16.2100    18.6400   -49.7250 O.3     487  TIP337     -0.4105
 20372 H1          15.8210    18.3590   -48.8960 H       487  TIP337      0.2052
 20373 H2          17.0500    18.1810   -49.7630 H       487  TIP337      0.2052
 20374 OH2         31.1420   -26.2460   -47.9290 O.3     488  TIP338     -0.4105
 20375 H1          30.7420   -25.8210   -48.6880 H       488  TIP338      0.2052
 20376 H2          31.5950   -25.5400   -47.4690 H       488  TIP338      0.2052
 20377 OH2          4.3460    27.0490   -33.3920 O.3     489  TIP339     -0.4105
 20378 H1           4.0820    27.5380   -32.6130 H       489  TIP339      0.2052
 20379 H2           4.5190    27.7230   -34.0500 H       489  TIP339      0.2052
 20380 OH2         -4.9350    29.7000   -41.9840 O.3     490  TIP340     -0.4105
 20381 H1          -4.8920    28.7480   -42.0760 H       490  TIP340      0.2052
 20382 H2          -5.5580    29.9780   -42.6550 H       490  TIP340      0.2052
 20383 OH2        -23.2560    -3.2780    55.0940 O.3     491  TIP341     -0.4105
 20384 H1         -23.7160    -3.4700    54.2770 H       491  TIP341      0.2052
 20385 H2         -22.3920    -3.6740    54.9820 H       491  TIP341      0.2052
 20386 OH2        -22.0290    20.0430   -34.8040 O.3     492  TIP342     -0.4105
 20387 H1         -21.5610    20.5310   -34.1270 H       492  TIP342      0.2052
 20388 H2         -21.6330    19.1720   -34.7900 H       492  TIP342      0.2052
 20389 OH2          2.6940   -19.9090    50.6830 O.3     493  TIP343     -0.4105
 20390 H1           1.8770   -19.5260    51.0020 H       493  TIP343      0.2052
 20391 H2           2.8330   -20.6750    51.2400 H       493  TIP343      0.2052
 20392 OH2         29.1170    -7.9730    41.4170 O.3     494  TIP344     -0.4105
 20393 H1          28.6810    -7.1350    41.2650 H       494  TIP344      0.2052
 20394 H2          30.0420    -7.7970    41.2450 H       494  TIP344      0.2052
 20395 OH2         12.3340    12.1660    54.4150 O.3     495  TIP345     -0.4105
 20396 H1          12.5230    11.2470    54.6070 H       495  TIP345      0.2052
 20397 H2          13.1680    12.5250    54.1130 H       495  TIP345      0.2052
 20398 OH2         24.5300    24.7950    31.3340 O.3     496  TIP346     -0.4105
 20399 H1          24.8210    23.8850    31.2800 H       496  TIP346      0.2052
 20400 H2          23.5820    24.7520    31.2140 H       496  TIP346      0.2052
 20401 OH2         13.6490    31.5110    49.5000 O.3     497  TIP347     -0.4105
 20402 H1          14.2340    31.6230    48.7510 H       497  TIP347      0.2052
 20403 H2          12.7810    31.3970    49.1110 H       497  TIP347      0.2052
 20404 OH2         17.1070    24.8720    28.0250 O.3     498  TIP348     -0.4105
 20405 H1          17.3180    24.0090    28.3790 H       498  TIP348      0.2052
 20406 H2          16.1510    24.8860    27.9780 H       498  TIP348      0.2052
 20407 OH2         32.3090    10.9400   -47.6140 O.3     499  TIP349     -0.4105
 20408 H1          32.8660    10.1840   -47.8010 H       499  TIP349      0.2052
 20409 H2          32.8010    11.4460   -46.9670 H       499  TIP349      0.2052
 20410 OH2        -30.3300    19.3250    39.0030 O.3     500  TIP350     -0.4105
 20411 H1         -30.5540    18.6480    39.6410 H       500  TIP350      0.2052
 20412 H2         -30.6490    20.1390    39.3940 H       500  TIP350      0.2052
 20413 OH2        -21.7550   -12.7130    46.6170 O.3     501  TIP351     -0.4105
 20414 H1         -21.6630   -12.5890    45.6720 H       501  TIP351      0.2052
 20415 H2         -20.8620   -12.6470    46.9560 H       501  TIP351      0.2052
 20416 OH2         -3.5170    22.5980    33.8820 O.3     502  TIP352     -0.4105
 20417 H1          -3.0110    23.3140    34.2670 H       502  TIP352      0.2052
 20418 H2          -3.6580    22.8650    32.9740 H       502  TIP352      0.2052
 20419 OH2          8.6430    -3.0420    40.2650 O.3     503  TIP353     -0.4105
 20420 H1           8.1450    -3.7560    40.6630 H       503  TIP353      0.2052
 20421 H2           8.8100    -2.4360    40.9860 H       503  TIP353      0.2052
 20422 OH2         -0.2550   -21.0420   -50.0840 O.3     504  TIP354     -0.4105
 20423 H1           0.2050   -20.7650   -49.2920 H       504  TIP354      0.2052
 20424 H2           0.0510   -21.9350   -50.2400 H       504  TIP354      0.2052
 20425 OH2        -23.0100   -31.5780    37.0180 O.3     505  TIP355     -0.4105
 20426 H1         -23.4930   -30.7840    37.2480 H       505  TIP355      0.2052
 20427 H2         -22.6710   -31.4070    36.1400 H       505  TIP355      0.2052
 20428 OH2         -1.6360   -23.7030   -36.3480 O.3     506  TIP356     -0.4105
 20429 H1          -2.4310   -23.1980   -36.1800 H       506  TIP356      0.2052
 20430 H2          -1.1650   -23.6950   -35.5150 H       506  TIP356      0.2052
 20431 OH2         11.8460    27.4110    41.6350 O.3     507  TIP357     -0.4105
 20432 H1          10.8930    27.3160    41.6630 H       507  TIP357      0.2052
 20433 H2          12.1460    26.6640    41.1180 H       507  TIP357      0.2052
 20434 OH2        -27.6730    26.0660   -30.4120 O.3     508  TIP358     -0.4105
 20435 H1         -26.9730    26.1040   -29.7600 H       508  TIP358      0.2052
 20436 H2         -27.2790    25.6160   -31.1600 H       508  TIP358      0.2052
 20437 OH2         17.1440   -21.2090   -41.5820 O.3     509  TIP359     -0.4105
 20438 H1          17.2600   -20.4250   -42.1190 H       509  TIP359      0.2052
 20439 H2          16.6940   -21.8280   -42.1560 H       509  TIP359      0.2052
 20440 OH2         -5.2810     5.6150   -41.8130 O.3     510  TIP360     -0.4105
 20441 H1          -5.4920     5.0440   -42.5510 H       510  TIP360      0.2052
 20442 H2          -4.7650     5.0660   -41.2230 H       510  TIP360      0.2052
 20443 OH2        -11.1200    21.6780   -20.0530 O.3     511  TIP361     -0.4105
 20444 H1         -10.8990    22.3790   -20.6670 H       511  TIP361      0.2052
 20445 H2         -11.9220    21.9790   -19.6250 H       511  TIP361      0.2052
 20446 OH2         -7.7540    20.5350    40.8650 O.3     512  TIP362     -0.4105
 20447 H1          -7.3910    19.6530    40.9460 H       512  TIP362      0.2052
 20448 H2          -7.3160    21.0390    41.5510 H       512  TIP362      0.2052
 20449 OH2         18.1460   -13.1940   -35.5600 O.3     513  TIP363     -0.4105
 20450 H1          18.5090   -12.3650   -35.2460 H       513  TIP363      0.2052
 20451 H2          17.5590   -12.9440   -36.2730 H       513  TIP363      0.2052
 20452 OH2         15.3330   -10.8800    52.9310 O.3     514  TIP364     -0.4105
 20453 H1          15.2150    -9.9590    53.1620 H       514  TIP364      0.2052
 20454 H2          15.5610   -10.8670    52.0010 H       514  TIP364      0.2052
 20455 OH2         19.3920    -3.7560   -43.6010 O.3     515  TIP365     -0.4105
 20456 H1          18.6780    -4.0280   -44.1790 H       515  TIP365      0.2052
 20457 H2          19.3750    -4.3890   -42.8840 H       515  TIP365      0.2052
 20458 OH2          0.4420     0.0950    49.0910 O.3     516  TIP366     -0.4105
 20459 H1           1.3420    -0.0880    48.8210 H       516  TIP366      0.2052
 20460 H2           0.4330    -0.0830    50.0310 H       516  TIP366      0.2052
 20461 OH2        -17.4500    18.7940   -28.7120 O.3     517  TIP367     -0.4105
 20462 H1         -16.7420    18.3150   -29.1420 H       517  TIP367      0.2052
 20463 H2         -17.4520    18.4650   -27.8140 H       517  TIP367      0.2052
 20464 OH2          3.1450    12.5150    46.8220 O.3     518  TIP368     -0.4105
 20465 H1           2.5900    12.7330    47.5710 H       518  TIP368      0.2052
 20466 H2           2.6740    12.8610    46.0650 H       518  TIP368      0.2052
 20467 OH2          4.9950    30.7900    45.6750 O.3     519  TIP369     -0.4105
 20468 H1           5.6730    31.2330    45.1640 H       519  TIP369      0.2052
 20469 H2           4.8510    31.3630    46.4280 H       519  TIP369      0.2052
 20470 OH2          4.4700   -20.7650   -36.3030 O.3     520  TIP370     -0.4105
 20471 H1           4.5080   -19.8810   -36.6680 H       520  TIP370      0.2052
 20472 H2           3.6300   -21.1120   -36.6030 H       520  TIP370      0.2052
 20473 OH2         29.5760   -10.8300   -44.2090 O.3     521  TIP371     -0.4105
 20474 H1          29.8820   -11.2660   -45.0040 H       521  TIP371      0.2052
 20475 H2          29.2720    -9.9720   -44.5080 H       521  TIP371      0.2052
 20476 OH2         14.5010   -22.2310   -37.6220 O.3     522  TIP372     -0.4105
 20477 H1          14.8000   -21.3540   -37.3840 H       522  TIP372      0.2052
 20478 H2          15.1540   -22.8190   -37.2410 H       522  TIP372      0.2052
 20479 OH2          7.3620   -16.9360   -51.3700 O.3     523  TIP373     -0.4105
 20480 H1           7.3310   -17.6750   -51.9770 H       523  TIP373      0.2052
 20481 H2           8.2960   -16.7630   -51.2500 H       523  TIP373      0.2052
 20482 OH2        -31.6560    -3.2070   -26.3020 O.3     524  TIP374     -0.4105
 20483 H1         -31.6340    -2.2510   -26.2650 H       524  TIP374      0.2052
 20484 H2         -31.9090    -3.4070   -27.2040 H       524  TIP374      0.2052
 20485 OH2         19.6370    32.0910   -40.7340 O.3     525  TIP375     -0.4105
 20486 H1          19.4780    31.8140   -39.8320 H       525  TIP375      0.2052
 20487 H2          20.2170    31.4200   -41.0930 H       525  TIP375      0.2052
 20488 OH2         13.8260   -22.1320    33.9510 O.3     526  TIP376     -0.4105
 20489 H1          12.8810   -22.2700    33.8950 H       526  TIP376      0.2052
 20490 H2          13.9630   -21.7570    34.8210 H       526  TIP376      0.2052
 20491 OH2        -12.9970    15.1130   -50.4270 O.3     527  TIP377     -0.4105
 20492 H1         -13.2510    15.3840   -49.5450 H       527  TIP377      0.2052
 20493 H2         -13.7390    15.3610   -50.9780 H       527  TIP377      0.2052
 20494 OH2        -16.4790    -3.5430   -48.5020 O.3     528  TIP378     -0.4105
 20495 H1         -15.8300    -4.1410   -48.8740 H       528  TIP378      0.2052
 20496 H2         -16.3870    -2.7410   -49.0160 H       528  TIP378      0.2052
 20497 OH2          7.6020   -29.4340   -53.5090 O.3     529  TIP379     -0.4105
 20498 H1           7.6670   -30.2060   -54.0700 H       529  TIP379      0.2052
 20499 H2           8.4270   -29.4190   -53.0240 H       529  TIP379      0.2052
 20500 OH2          5.2910   -21.1130   -52.9430 O.3     530  TIP380     -0.4105
 20501 H1           4.3760   -21.1160   -52.6610 H       530  TIP380      0.2052
 20502 H2           5.2900   -21.6040   -53.7650 H       530  TIP380      0.2052
 20503 OH2         27.7390    25.3860   -50.8410 O.3     531  TIP381     -0.4105
 20504 H1          26.9720    25.9530   -50.9170 H       531  TIP381      0.2052
 20505 H2          27.7470    24.8820   -51.6540 H       531  TIP381      0.2052
 20506 OH2         -0.8990   -31.6940   -54.7600 O.3     532  TIP382     -0.4105
 20507 H1          -0.1710   -31.1780   -55.1070 H       532  TIP382      0.2052
 20508 H2          -1.2570   -32.1470   -55.5240 H       532  TIP382      0.2052
 20509 OH2         24.0040    33.0130    40.1840 O.3     533  TIP383     -0.4105
 20510 H1          23.1170    33.3050    40.3940 H       533  TIP383      0.2052
 20511 H2          23.8840    32.1550    39.7760 H       533  TIP383      0.2052
 20512 OH2        -11.5310    -8.6480    40.5750 O.3     534  TIP384     -0.4105
 20513 H1         -11.0790    -9.0400    41.3220 H       534  TIP384      0.2052
 20514 H2         -11.0770    -8.9980    39.8090 H       534  TIP384      0.2052
 20515 OH2        -29.6880    21.1590    28.8130 O.3     535  TIP385     -0.4105
 20516 H1         -30.2170    21.2000    28.0170 H       535  TIP385      0.2052
 20517 H2         -30.2920    21.3980    29.5160 H       535  TIP385      0.2052
 20518 OH2         -0.2840    -3.2420    22.3980 O.3     536  TIP386     -0.4105
 20519 H1          -0.2880    -2.7580    21.5720 H       536  TIP386      0.2052
 20520 H2          -0.9460    -2.8050    22.9340 H       536  TIP386      0.2052
 20521 OH2         13.1880   -15.0190   -19.3400 O.3     537  TIP387     -0.4105
 20522 H1          12.2780   -15.0800   -19.0490 H       537  TIP387      0.2052
 20523 H2          13.3860   -14.0830   -19.3170 H       537  TIP387      0.2052
 20524 OH2         -1.6070   -24.7490    51.3550 O.3     538  TIP388     -0.4105
 20525 H1          -2.3680   -24.4390    50.8650 H       538  TIP388      0.2052
 20526 H2          -1.9770   -25.1940    52.1170 H       538  TIP388      0.2052
 20527 OH2         10.0900    20.1490   -29.8590 O.3     539  TIP389     -0.4105
 20528 H1           9.8520    20.0060   -30.7750 H       539  TIP389      0.2052
 20529 H2           9.7300    19.3930   -29.3970 H       539  TIP389      0.2052
 20530 OH2         -9.6310    -6.3580   -36.3810 O.3     540  TIP390     -0.4105
 20531 H1         -10.4210    -6.8130   -36.0880 H       540  TIP390      0.2052
 20532 H2          -9.2240    -6.0420   -35.5750 H       540  TIP390      0.2052
 20533 OH2          9.6640     9.6120   -14.4370 O.3     541  TIP391     -0.4105
 20534 H1           8.8790    10.1360   -14.5970 H       541  TIP391      0.2052
 20535 H2          10.2630     9.8570   -15.1430 H       541  TIP391      0.2052
 20536 OH2         -3.3730   -26.0600    49.2040 O.3     542  TIP392     -0.4105
 20537 H1          -2.4200   -25.9750    49.2100 H       542  TIP392      0.2052
 20538 H2          -3.5850   -26.4460    50.0540 H       542  TIP392      0.2052
 20539 OH2          5.8530   -24.7700   -55.4780 O.3     543  TIP393     -0.4105
 20540 H1           6.4410   -25.5110   -55.3300 H       543  TIP393      0.2052
 20541 H2           4.9740   -25.1480   -55.4280 H       543  TIP393      0.2052
 20542 OH2          7.0460     6.3190   -12.4420 O.3     544  TIP394     -0.4105
 20543 H1           6.5520     5.9320   -11.7190 H       544  TIP394      0.2052
 20544 H2           7.2840     7.1920   -12.1290 H       544  TIP394      0.2052
 20545 OH2        -22.5700    17.4610    54.5870 O.3     545  TIP395     -0.4105
 20546 H1         -23.4070    17.0680    54.8330 H       545  TIP395      0.2052
 20547 H2         -22.3690    17.0830    53.7310 H       545  TIP395      0.2052
 20548 OH2          5.8130    11.4830    48.3320 O.3     546  TIP396     -0.4105
 20549 H1           6.5040    11.8570    47.7860 H       546  TIP396      0.2052
 20550 H2           5.6430    12.1510    48.9960 H       546  TIP396      0.2052
 20551 OH2          9.4790    24.4770   -29.9340 O.3     547  TIP397     -0.4105
 20552 H1           8.9920    23.7960   -30.3990 H       547  TIP397      0.2052
 20553 H2           9.2010    25.2950   -30.3460 H       547  TIP397      0.2052
 20554 OH2        -11.2610   -17.8030   -27.3970 O.3     548  TIP398     -0.4105
 20555 H1         -10.9860   -17.1040   -26.8040 H       548  TIP398      0.2052
 20556 H2         -12.1710   -17.5930   -27.6090 H       548  TIP398      0.2052
 20557 OH2          1.7970   -31.3030   -34.9360 O.3     549  TIP399     -0.4105
 20558 H1           1.6560   -31.5000   -34.0100 H       549  TIP399      0.2052
 20559 H2           0.9420   -31.4400   -35.3440 H       549  TIP399      0.2052
 20560 OH2        -24.3940    -2.5320    36.0730 O.3     550  TIP400     -0.4105
 20561 H1         -25.3260    -2.5500    36.2910 H       550  TIP400      0.2052
 20562 H2         -24.1450    -3.4540    36.0070 H       550  TIP400      0.2052
 20563 OH2        -25.3910    13.8490   -37.6400 O.3     551  TIP401     -0.4105
 20564 H1         -25.2970    14.5540   -36.9990 H       551  TIP401      0.2052
 20565 H2         -24.6900    13.2340   -37.4240 H       551  TIP401      0.2052
 20566 OH2          5.0820    11.6750    21.9780 O.3     552  TIP402     -0.4105
 20567 H1           4.3640    11.4290    22.5610 H       552  TIP402      0.2052
 20568 H2           5.6560    12.2170    22.5190 H       552  TIP402      0.2052
 20569 OH2         28.3380   -25.8650    25.2220 O.3     553  TIP403     -0.4105
 20570 H1          28.2630   -26.7830    25.4840 H       553  TIP403      0.2052
 20571 H2          28.8730   -25.8850    24.4290 H       553  TIP403      0.2052
 20572 OH2          9.2690   -25.5820    46.7150 O.3     554  TIP404     -0.4105
 20573 H1           9.0280   -25.4520    47.6320 H       554  TIP404      0.2052
 20574 H2           9.7180   -26.4280    46.7030 H       554  TIP404      0.2052
 20575 OH2         24.4000   -20.8560    50.8530 O.3     555  TIP405     -0.4105
 20576 H1          24.5240   -20.3080    51.6280 H       555  TIP405      0.2052
 20577 H2          25.2150   -20.7620    50.3600 H       555  TIP405      0.2052
 20578 OH2         27.0540   -10.5320    29.8140 O.3     556  TIP406     -0.4105
 20579 H1          26.2130   -10.5960    30.2660 H       556  TIP406      0.2052
 20580 H2          27.6920   -10.8630    30.4450 H       556  TIP406      0.2052
 20581 OH2         13.5780   -19.2160   -50.4020 O.3     557  TIP407     -0.4105
 20582 H1          12.9930   -19.8240   -49.9510 H       557  TIP407      0.2052
 20583 H2          13.0860   -18.9390   -51.1750 H       557  TIP407      0.2052
 20584 OH2          7.2180   -18.2570   -42.2100 O.3     558  TIP408     -0.4105
 20585 H1           7.6110   -18.7640   -42.9200 H       558  TIP408      0.2052
 20586 H2           6.7310   -18.9010   -41.6950 H       558  TIP408      0.2052
 20587 OH2        -19.2320   -21.6830   -44.6120 O.3     559  TIP409     -0.4105
 20588 H1         -19.1660   -22.5440   -44.2000 H       559  TIP409      0.2052
 20589 H2         -20.1200   -21.3880   -44.4120 H       559  TIP409      0.2052
 20590 OH2         28.7270     8.0090   -53.8320 O.3     560  TIP410     -0.4105
 20591 H1          28.6070     7.2790   -54.4390 H       560  TIP410      0.2052
 20592 H2          27.8590     8.4040   -53.7580 H       560  TIP410      0.2052
 20593 OH2          5.5300    -3.4790   -41.5110 O.3     561  TIP411     -0.4105
 20594 H1           5.6440    -3.4030   -42.4590 H       561  TIP411      0.2052
 20595 H2           4.9010    -4.1930   -41.4020 H       561  TIP411      0.2052
 20596 OH2          8.2560     4.0880    20.9420 O.3     562  TIP412     -0.4105
 20597 H1           8.2440     3.6210    20.1070 H       562  TIP412      0.2052
 20598 H2           9.1710     4.0600    21.2200 H       562  TIP412      0.2052
 20599 OH2         17.0810    31.0180   -53.9110 O.3     563  TIP413     -0.4105
 20600 H1          16.8770    31.2010   -52.9930 H       563  TIP413      0.2052
 20601 H2          16.2580    30.6980   -54.2810 H       563  TIP413      0.2052
 20602 OH2         -5.1810    -9.1880   -18.4720 O.3     564  TIP414     -0.4105
 20603 H1          -4.7820    -9.0300   -19.3280 H       564  TIP414      0.2052
 20604 H2          -4.4850    -8.9940   -17.8440 H       564  TIP414      0.2052
 20605 OH2        -24.1550    14.7110    39.0780 O.3     565  TIP415     -0.4105
 20606 H1         -23.5690    14.0880    38.6480 H       565  TIP415      0.2052
 20607 H2         -23.9670    14.6110    40.0120 H       565  TIP415      0.2052
 20608 OH2         13.4170    22.5820   -21.0580 O.3     566  TIP416     -0.4105
 20609 H1          13.0530    23.1230   -21.7580 H       566  TIP416      0.2052
 20610 H2          13.3270    21.6840   -21.3770 H       566  TIP416      0.2052
 20611 OH2        -20.7390     7.8120    51.3480 O.3     567  TIP417     -0.4105
 20612 H1         -21.6180     7.7460    51.7220 H       567  TIP417      0.2052
 20613 H2         -20.4070     6.9140    51.3550 H       567  TIP417      0.2052
 20614 OH2          8.1820    -9.2820    35.9320 O.3     568  TIP418     -0.4105
 20615 H1           7.5890    -9.4260    36.6700 H       568  TIP418      0.2052
 20616 H2           8.9720    -8.9140    36.3270 H       568  TIP418      0.2052
 20617 OH2         26.6030    23.9670    23.4630 O.3     569  TIP419     -0.4105
 20618 H1          26.7530    23.2690    24.1000 H       569  TIP419      0.2052
 20619 H2          26.3470    23.5100    22.6620 H       569  TIP419      0.2052
 20620 OH2         23.3330    12.4030   -50.6400 O.3     570  TIP420     -0.4105
 20621 H1          23.6570    12.8190   -51.4390 H       570  TIP420      0.2052
 20622 H2          23.0270    13.1300   -50.0980 H       570  TIP420      0.2052
 20623 OH2        -12.5020    32.0830    30.7110 O.3     571  TIP421     -0.4105
 20624 H1         -12.0270    32.6340    30.0880 H       571  TIP421      0.2052
 20625 H2         -11.9510    31.3080    30.8150 H       571  TIP421      0.2052
 20626 OH2         16.8830     6.2100    24.6590 O.3     572  TIP422     -0.4105
 20627 H1          17.6010     6.8090    24.4530 H       572  TIP422      0.2052
 20628 H2          16.3180     6.7070    25.2500 H       572  TIP422      0.2052
 20629 OH2          3.6980   -20.9990   -42.2890 O.3     573  TIP423     -0.4105
 20630 H1           4.4460   -20.5380   -42.6680 H       573  TIP423      0.2052
 20631 H2           3.8970   -21.9260   -42.4200 H       573  TIP423      0.2052
 20632 OH2         -6.4470    28.5880    27.7560 O.3     574  TIP424     -0.4105
 20633 H1          -6.6730    28.4520    28.6760 H       574  TIP424      0.2052
 20634 H2          -6.0960    27.7460    27.4680 H       574  TIP424      0.2052
 20635 OH2         10.2270    29.3570   -19.0900 O.3     575  TIP425     -0.4105
 20636 H1          10.8070    29.2960   -18.3310 H       575  TIP425      0.2052
 20637 H2           9.3860    29.6350   -18.7270 H       575  TIP425      0.2052
 20638 OH2         15.2180   -13.0050    34.0010 O.3     576  TIP426     -0.4105
 20639 H1          15.7280   -13.8140    33.9640 H       576  TIP426      0.2052
 20640 H2          14.3360   -13.2650    33.7350 H       576  TIP426      0.2052
 20641 OH2         11.6680     7.4860   -37.1770 O.3     577  TIP427     -0.4105
 20642 H1          12.0220     6.9980   -36.4340 H       577  TIP427      0.2052
 20643 H2          10.7180     7.4300   -37.0710 H       577  TIP427      0.2052
 20644 OH2         26.7250    24.0660   -42.3190 O.3     578  TIP428     -0.4105
 20645 H1          26.6010    24.9440   -42.6800 H       578  TIP428      0.2052
 20646 H2          27.2220    23.5980   -42.9900 H       578  TIP428      0.2052
 20647 OH2         -5.2500   -32.3300    42.1070 O.3     579  TIP429     -0.4105
 20648 H1          -6.0050   -32.1820    41.5380 H       579  TIP429      0.2052
 20649 H2          -4.5500   -31.8060    41.7180 H       579  TIP429      0.2052
 20650 OH2        -15.5640     8.9350    34.8790 O.3     580  TIP430     -0.4105
 20651 H1         -15.2440     9.7260    34.4450 H       580  TIP430      0.2052
 20652 H2         -16.4830     8.8740    34.6190 H       580  TIP430      0.2052
 20653 OH2          3.4020    12.5800    52.3000 O.3     581  TIP431     -0.4105
 20654 H1           3.0950    11.6960    52.0970 H       581  TIP431      0.2052
 20655 H2           2.9460    13.1420    51.6740 H       581  TIP431      0.2052
 20656 OH2         31.5290     4.6500    29.3790 O.3     582  TIP432     -0.4105
 20657 H1          31.1980     5.3750    28.8480 H       582  TIP432      0.2052
 20658 H2          32.4030     4.4770    29.0300 H       582  TIP432      0.2052
 20659 OH2        -27.4110    16.3740   -31.3380 O.3     583  TIP433     -0.4105
 20660 H1         -27.2900    17.2920   -31.5770 H       583  TIP433      0.2052
 20661 H2         -28.2700    16.1450   -31.6940 H       583  TIP433      0.2052
 20662 OH2        -21.5700    -0.5910   -39.8890 O.3     584  TIP434     -0.4105
 20663 H1         -21.7250     0.3340   -40.0790 H       584  TIP434      0.2052
 20664 H2         -20.9010    -0.8570   -40.5200 H       584  TIP434      0.2052
 20665 OH2         -2.8890    31.0860    44.6090 O.3     585  TIP435     -0.4105
 20666 H1          -1.9430    31.0040    44.4830 H       585  TIP435      0.2052
 20667 H2          -2.9950    31.2010    45.5540 H       585  TIP435      0.2052
 20668 OH2         14.7050    17.2790    37.5990 O.3     586  TIP436     -0.4105
 20669 H1          15.3760    16.7220    37.2050 H       586  TIP436      0.2052
 20670 H2          14.7030    18.0710    37.0610 H       586  TIP436      0.2052
 20671 OH2          8.4240   -16.0330   -17.3550 O.3     587  TIP437     -0.4105
 20672 H1           7.6250   -15.5600   -17.5880 H       587  TIP437      0.2052
 20673 H2           8.2460   -16.9400   -17.6040 H       587  TIP437      0.2052
 20674 OH2        -26.6640    23.0850   -31.0930 O.3     588  TIP438     -0.4105
 20675 H1         -26.0430    22.3920   -31.3180 H       588  TIP438      0.2052
 20676 H2         -27.1270    23.2680   -31.9110 H       588  TIP438      0.2052
 20677 OH2          8.1210   -26.6170   -42.6460 O.3     589  TIP439     -0.4105
 20678 H1           8.8620   -26.4090   -42.0770 H       589  TIP439      0.2052
 20679 H2           8.4380   -26.4290   -43.5300 H       589  TIP439      0.2052
 20680 OH2        -28.9150   -17.7500   -50.4210 O.3     590  TIP440     -0.4105
 20681 H1         -29.5390   -17.0340   -50.3060 H       590  TIP440      0.2052
 20682 H2         -28.8340   -18.1420   -49.5520 H       590  TIP440      0.2052
 20683 OH2        -28.5690     0.1790   -50.8800 O.3     591  TIP441     -0.4105
 20684 H1         -27.9450     0.6280   -51.4500 H       591  TIP441      0.2052
 20685 H2         -29.4260     0.3870   -51.2510 H       591  TIP441      0.2052
 20686 OH2         20.6580    -5.4710   -53.9940 O.3     592  TIP442     -0.4105
 20687 H1          19.7200    -5.5980   -54.1360 H       592  TIP442      0.2052
 20688 H2          20.8130    -5.7960   -53.1070 H       592  TIP442      0.2052
 20689 OH2        -15.9950   -27.4170    38.4260 O.3     593  TIP443     -0.4105
 20690 H1         -15.9440   -26.5090    38.1270 H       593  TIP443      0.2052
 20691 H2         -16.4200   -27.3650    39.2820 H       593  TIP443      0.2052
 20692 OH2        -13.0320   -23.5220   -37.3260 O.3     594  TIP444     -0.4105
 20693 H1         -13.3920   -24.3060   -36.9120 H       594  TIP444      0.2052
 20694 H2         -12.9870   -22.8760   -36.6210 H       594  TIP444      0.2052
 20695 OH2        -19.8450   -24.9470    25.2150 O.3     595  TIP445     -0.4105
 20696 H1         -18.9530   -24.6010    25.2100 H       595  TIP445      0.2052
 20697 H2         -19.8160   -25.6740    25.8370 H       595  TIP445      0.2052
 20698 OH2         -3.6900    21.6550    30.4640 O.3     596  TIP446     -0.4105
 20699 H1          -2.9630    22.2550    30.6310 H       596  TIP446      0.2052
 20700 H2          -3.2840    20.7890    30.4340 H       596  TIP446      0.2052
 20701 OH2         26.7140    21.8810    33.9940 O.3     597  TIP447     -0.4105
 20702 H1          27.1850    21.0490    34.0260 H       597  TIP447      0.2052
 20703 H2          26.0010    21.7300    33.3740 H       597  TIP447      0.2052
 20704 OH2         -9.1110    21.2180    53.8930 O.3     598  TIP448     -0.4105
 20705 H1          -9.7850    20.7690    54.4040 H       598  TIP448      0.2052
 20706 H2          -8.8480    21.9580    54.4400 H       598  TIP448      0.2052
 20707 OH2         22.7850    27.7520   -23.0790 O.3     599  TIP449     -0.4105
 20708 H1          23.6590    27.4170   -23.2780 H       599  TIP449      0.2052
 20709 H2          22.9390    28.4920   -22.4920 H       599  TIP449      0.2052
 20710 OH2         17.0780   -18.6090    24.9100 O.3     600  TIP450     -0.4105
 20711 H1          16.5070   -19.3730    24.8360 H       600  TIP450      0.2052
 20712 H2          17.8510   -18.8360    24.3940 H       600  TIP450      0.2052
 20713 OH2         26.2260    -5.0560    54.4860 O.3     601  TIP451     -0.4105
 20714 H1          25.6650    -5.2830    53.7440 H       601  TIP451      0.2052
 20715 H2          25.7760    -4.3270    54.9130 H       601  TIP451      0.2052
 20716 OH2         27.3420   -16.8910    24.5400 O.3     602  TIP452     -0.4105
 20717 H1          27.1120   -15.9620    24.5360 H       602  TIP452      0.2052
 20718 H2          28.2970   -16.9020    24.4800 H       602  TIP452      0.2052
 20719 OH2         14.6400    11.1620    30.8240 O.3     603  TIP453     -0.4105
 20720 H1          14.2330    11.4940    30.0240 H       603  TIP453      0.2052
 20721 H2          15.1690    10.4190    30.5320 H       603  TIP453      0.2052
 20722 OH2         22.7850     5.0530   -49.7930 O.3     604  TIP454     -0.4105
 20723 H1          23.1030     4.1630   -49.9450 H       604  TIP454      0.2052
 20724 H2          23.2660     5.3520   -49.0220 H       604  TIP454      0.2052
 20725 OH2         17.4970    -1.4860   -45.7710 O.3     605  TIP455     -0.4105
 20726 H1          16.6760    -1.5580   -45.2830 H       605  TIP455      0.2052
 20727 H2          18.1160    -1.1100   -45.1460 H       605  TIP455      0.2052
 20728 OH2         29.1380    -4.2010    22.5390 O.3     606  TIP456     -0.4105
 20729 H1          28.9430    -3.3750    22.9800 H       606  TIP456      0.2052
 20730 H2          28.2820    -4.6010    22.3880 H       606  TIP456      0.2052
 20731 OH2         -9.2560    -3.8980   -37.8420 O.3     607  TIP457     -0.4105
 20732 H1          -8.3420    -4.0160   -37.5860 H       607  TIP457      0.2052
 20733 H2          -9.6900    -4.7040   -37.5650 H       607  TIP457      0.2052
 20734 OH2        -10.9790   -25.8500    44.9310 O.3     608  TIP458     -0.4105
 20735 H1         -10.6770   -25.7810    44.0250 H       608  TIP458      0.2052
 20736 H2         -11.8750   -25.5140    44.9120 H       608  TIP458      0.2052
 20737 OH2         -1.3340    13.9470    45.4470 O.3     609  TIP459     -0.4105
 20738 H1          -0.9120    13.6690    44.6340 H       609  TIP459      0.2052
 20739 H2          -1.4010    14.8980    45.3700 H       609  TIP459      0.2052
 20740 OH2         26.2840   -14.3150    25.3250 O.3     610  TIP460     -0.4105
 20741 H1          26.9080   -13.9980    25.9790 H       610  TIP460      0.2052
 20742 H2          26.3880   -13.7170    24.5850 H       610  TIP460      0.2052
 20743 OH2         25.2720    -1.3360   -46.8030 O.3     611  TIP461     -0.4105
 20744 H1          26.1850    -1.0740   -46.6780 H       611  TIP461      0.2052
 20745 H2          25.0020    -1.6780   -45.9510 H       611  TIP461      0.2052
 20746 OH2         18.4570    30.9910    39.0680 O.3     612  TIP462     -0.4105
 20747 H1          17.9260    30.2210    39.2720 H       612  TIP462      0.2052
 20748 H2          17.8410    31.7230    39.1030 H       612  TIP462      0.2052
 20749 OH2         30.0320   -32.0480   -39.7170 O.3     613  TIP463     -0.4105
 20750 H1          29.5580   -31.9560   -40.5430 H       613  TIP463      0.2052
 20751 H2          30.4420   -32.9120   -39.7710 H       613  TIP463      0.2052
 20752 OH2         21.6980    31.7920   -30.8090 O.3     614  TIP464     -0.4105
 20753 H1          21.5700    32.6390   -30.3820 H       614  TIP464      0.2052
 20754 H2          22.2760    31.9810   -31.5480 H       614  TIP464      0.2052
 20755 OH2          3.2950    -0.0410    48.7600 O.3     615  TIP465     -0.4105
 20756 H1           4.1220    -0.5190    48.6970 H       615  TIP465      0.2052
 20757 H2           3.5450     0.8330    49.0570 H       615  TIP465      0.2052
 20758 OH2         30.0060    13.0440    50.3370 O.3     616  TIP466     -0.4105
 20759 H1          29.6380    13.5230    51.0790 H       616  TIP466      0.2052
 20760 H2          29.2630    12.8990    49.7520 H       616  TIP466      0.2052
 20761 OH2        -16.0440     6.8450   -24.2060 O.3     617  TIP467     -0.4105
 20762 H1         -15.5280     6.8350   -23.4000 H       617  TIP467      0.2052
 20763 H2         -15.4040     7.0090   -24.8980 H       617  TIP467      0.2052
 20764 OH2          8.1170    16.9270    51.6890 O.3     618  TIP468     -0.4105
 20765 H1           7.8340    17.7680    52.0460 H       618  TIP468      0.2052
 20766 H2           7.6730    16.2740    52.2300 H       618  TIP468      0.2052
 20767 OH2        -17.7530    15.5990   -51.7870 O.3     619  TIP469     -0.4105
 20768 H1         -18.3760    16.2290   -51.4270 H       619  TIP469      0.2052
 20769 H2         -18.2770    14.8170   -51.9640 H       619  TIP469      0.2052
 20770 OH2        -26.8540   -13.6910   -29.9640 O.3     620  TIP470     -0.4105
 20771 H1         -27.3170   -13.0410   -30.4930 H       620  TIP470      0.2052
 20772 H2         -26.8760   -13.3370   -29.0750 H       620  TIP470      0.2052
 20773 OH2         11.5720    28.1540    16.9270 O.3     621  TIP471     -0.4105
 20774 H1          11.5740    27.6930    16.0890 H       621  TIP471      0.2052
 20775 H2          11.0740    27.5850    17.5140 H       621  TIP471      0.2052
 20776 OH2          4.0790    17.9030    47.7970 O.3     622  TIP472     -0.4105
 20777 H1           3.1690    18.1620    47.6510 H       622  TIP472      0.2052
 20778 H2           4.0480    17.3400    48.5710 H       622  TIP472      0.2052
 20779 OH2          2.3560    -9.9640   -33.4380 O.3     623  TIP473     -0.4105
 20780 H1           2.8450    -9.7650   -32.6390 H       623  TIP473      0.2052
 20781 H2           2.6200   -10.8560   -33.6650 H       623  TIP473      0.2052
 20782 OH2         -6.0980   -29.1090    48.9510 O.3     624  TIP474     -0.4105
 20783 H1          -5.5180   -29.0110    48.1960 H       624  TIP474      0.2052
 20784 H2          -6.6300   -28.3130    48.9510 H       624  TIP474      0.2052
 20785 OH2         -3.1390    23.8270   -27.1340 O.3     625  TIP475     -0.4105
 20786 H1          -2.7790    24.0380   -26.2730 H       625  TIP475      0.2052
 20787 H2          -2.8520    22.9300   -27.3010 H       625  TIP475      0.2052
 20788 OH2         27.1750   -26.6820    51.1350 O.3     626  TIP476     -0.4105
 20789 H1          26.5300   -26.0140    51.3670 H       626  TIP476      0.2052
 20790 H2          26.6750   -27.3440    50.6580 H       626  TIP476      0.2052
 20791 OH2         23.8270    20.4420    32.4310 O.3     627  TIP477     -0.4105
 20792 H1          23.3500    20.2790    31.6170 H       627  TIP477      0.2052
 20793 H2          23.6520    19.6710    32.9700 H       627  TIP477      0.2052
 20794 OH2        -31.8600   -18.9310    49.7780 O.3     628  TIP478     -0.4105
 20795 H1         -30.9660   -18.6490    49.9710 H       628  TIP478      0.2052
 20796 H2         -32.3020   -18.9280    50.6270 H       628  TIP478      0.2052
 20797 OH2        -16.1370   -23.7360   -50.2940 O.3     629  TIP479     -0.4105
 20798 H1         -16.4480   -22.9170   -49.9090 H       629  TIP479      0.2052
 20799 H2         -15.2890   -23.5140   -50.6780 H       629  TIP479      0.2052
 20800 OH2          5.7410   -20.9720    54.0200 O.3     630  TIP480     -0.4105
 20801 H1           6.5330   -21.4220    53.7260 H       630  TIP480      0.2052
 20802 H2           5.5200   -21.3920    54.8500 H       630  TIP480      0.2052
 20803 OH2         -2.9920    -4.9360    54.1620 O.3     631  TIP481     -0.4105
 20804 H1          -3.8160    -5.4220    54.1530 H       631  TIP481      0.2052
 20805 H2          -3.1380    -4.2050    53.5610 H       631  TIP481      0.2052
 20806 OH2         -3.5430    -2.8230   -55.1260 O.3     632  TIP482     -0.4105
 20807 H1          -3.5880    -2.2850   -55.9170 H       632  TIP482      0.2052
 20808 H2          -2.9470    -3.5360   -55.3550 H       632  TIP482      0.2052
 20809 OH2         18.3210   -11.3560    31.1400 O.3     633  TIP483     -0.4105
 20810 H1          18.5940   -11.8440    31.9170 H       633  TIP483      0.2052
 20811 H2          18.3320   -12.0020    30.4350 H       633  TIP483      0.2052
 20812 OH2         25.0990    26.7910   -39.8570 O.3     634  TIP484     -0.4105
 20813 H1          24.5830    26.1210   -39.4090 H       634  TIP484      0.2052
 20814 H2          25.6540    26.3010   -40.4640 H       634  TIP484      0.2052
 20815 OH2         22.8070    -2.2790    45.0470 O.3     635  TIP485     -0.4105
 20816 H1          22.9090    -2.7400    45.8800 H       635  TIP485      0.2052
 20817 H2          22.1760    -1.5840    45.2340 H       635  TIP485      0.2052
 20818 OH2         12.4700    32.5250   -29.8240 O.3     636  TIP486     -0.4105
 20819 H1          13.2900    32.0430   -29.9350 H       636  TIP486      0.2052
 20820 H2          11.8940    32.1770   -30.5050 H       636  TIP486      0.2052
 20821 OH2        -30.4070     0.7910    53.4240 O.3     637  TIP487     -0.4105
 20822 H1         -31.3350     0.6820    53.6280 H       637  TIP487      0.2052
 20823 H2         -30.2710     1.7390    53.4230 H       637  TIP487      0.2052
 20824 OH2        -23.9240    15.8030    26.4860 O.3     638  TIP488     -0.4105
 20825 H1         -23.4920    15.1380    25.9500 H       638  TIP488      0.2052
 20826 H2         -24.0570    16.5410    25.8910 H       638  TIP488      0.2052
 20827 OH2         -8.1240     8.8170   -29.2210 O.3     639  TIP489     -0.4105
 20828 H1          -7.5590     8.1250   -29.5650 H       639  TIP489      0.2052
 20829 H2          -8.6430     9.0990   -29.9740 H       639  TIP489      0.2052
 20830 OH2          9.7750   -16.9860    24.0350 O.3     640  TIP490     -0.4105
 20831 H1          10.4180   -16.7480    23.3680 H       640  TIP490      0.2052
 20832 H2           9.4950   -17.8690    23.7950 H       640  TIP490      0.2052
 20833 OH2         -5.6440   -29.1800    26.5110 O.3     641  TIP491     -0.4105
 20834 H1          -5.9560   -28.6670    27.2570 H       641  TIP491      0.2052
 20835 H2          -4.8720   -29.6390    26.8420 H       641  TIP491      0.2052
 20836 OH2         25.3360   -12.0980   -51.3930 O.3     642  TIP492     -0.4105
 20837 H1          25.8740   -12.0790   -50.6010 H       642  TIP492      0.2052
 20838 H2          24.9270   -11.2330   -51.4250 H       642  TIP492      0.2052
 20839 OH2          4.1600     9.6150   -20.8140 O.3     643  TIP493     -0.4105
 20840 H1           4.2730     9.5490   -21.7630 H       643  TIP493      0.2052
 20841 H2           3.2200     9.7490   -20.6930 H       643  TIP493      0.2052
 20842 OH2         22.8320   -32.3870    43.2690 O.3     644  TIP494     -0.4105
 20843 H1          22.4020   -31.5580    43.0610 H       644  TIP494      0.2052
 20844 H2          22.3390   -32.7330    44.0130 H       644  TIP494      0.2052
 20845 OH2        -30.1620    24.8100    42.9130 O.3     645  TIP495     -0.4105
 20846 H1         -30.1040    24.0930    42.2820 H       645  TIP495      0.2052
 20847 H2         -29.4330    25.3880    42.6870 H       645  TIP495      0.2052
 20848 OH2        -12.4880    31.0770   -48.9140 O.3     646  TIP496     -0.4105
 20849 H1         -12.3000    32.0060   -49.0510 H       646  TIP496      0.2052
 20850 H2         -11.7510    30.7570   -48.3930 H       646  TIP496      0.2052
 20851 OH2         23.3740     0.7870   -30.5010 O.3     647  TIP497     -0.4105
 20852 H1          24.0270     0.1250   -30.2750 H       647  TIP497      0.2052
 20853 H2          23.8780     1.4900   -30.9110 H       647  TIP497      0.2052
 20854 OH2        -28.6520     2.8300    51.5780 O.3     648  TIP498     -0.4105
 20855 H1         -28.4000     3.7210    51.8200 H       648  TIP498      0.2052
 20856 H2         -29.2600     2.9420    50.8480 H       648  TIP498      0.2052
 20857 OH2        -22.8260    -7.3650    39.7180 O.3     649  TIP499     -0.4105
 20858 H1         -23.1570    -8.2630    39.7360 H       649  TIP499      0.2052
 20859 H2         -22.0640    -7.3790    40.2970 H       649  TIP499      0.2052
 20860 OH2        -18.2250    17.6300   -53.9680 O.3     650  TIP500     -0.4105
 20861 H1         -18.8040    17.0870   -54.5020 H       650  TIP500      0.2052
 20862 H2         -18.6140    17.6100   -53.0940 H       650  TIP500      0.2052
 20863 OH2         31.8540    21.7730   -34.7140 O.3     651  TIP501     -0.4105
 20864 H1          32.5440    22.4310   -34.8030 H       651  TIP501      0.2052
 20865 H2          31.0460    22.2810   -34.6440 H       651  TIP501      0.2052
 20866 OH2         -1.6450    -0.0580   -32.7880 O.3     652  TIP502     -0.4105
 20867 H1          -1.9720    -0.1930   -33.6770 H       652  TIP502      0.2052
 20868 H2          -0.7960     0.3660   -32.9060 H       652  TIP502      0.2052
 20869 OH2          2.0220    18.7730    37.5050 O.3     653  TIP503     -0.4105
 20870 H1           2.0720    18.2620    36.6970 H       653  TIP503      0.2052
 20871 H2           1.8480    19.6680    37.2130 H       653  TIP503      0.2052
 20872 OH2          5.3930     0.9410   -33.5220 O.3     654  TIP504     -0.4105
 20873 H1           5.8990     0.2950   -33.0290 H       654  TIP504      0.2052
 20874 H2           5.2670     1.6650   -32.9090 H       654  TIP504      0.2052
 20875 OH2        -27.6890     4.6480   -45.5380 O.3     655  TIP505     -0.4105
 20876 H1         -27.6690     3.7140   -45.7450 H       655  TIP505      0.2052
 20877 H2         -27.3330     5.0740   -46.3180 H       655  TIP505      0.2052
 20878 OH2         12.6950   -16.1350    43.4550 O.3     656  TIP506     -0.4105
 20879 H1          12.1280   -16.3050    42.7030 H       656  TIP506      0.2052
 20880 H2          13.0310   -15.2510    43.3080 H       656  TIP506      0.2052
 20881 OH2        -13.9910    27.8910   -31.5280 O.3     657  TIP507     -0.4105
 20882 H1         -14.0200    27.3980   -32.3490 H       657  TIP507      0.2052
 20883 H2         -14.2000    27.2450   -30.8540 H       657  TIP507      0.2052
 20884 OH2         28.9210     4.7160   -23.1950 O.3     658  TIP508     -0.4105
 20885 H1          28.6630     5.6210   -23.0210 H       658  TIP508      0.2052
 20886 H2          28.6830     4.2410   -22.3980 H       658  TIP508      0.2052
 20887 OH2          8.4000   -21.3200   -18.4570 O.3     659  TIP509     -0.4105
 20888 H1           8.9460   -21.3950   -19.2400 H       659  TIP509      0.2052
 20889 H2           8.9960   -21.5050   -17.7310 H       659  TIP509      0.2052
 20890 OH2         27.0140   -24.4410    40.2490 O.3     660  TIP510     -0.4105
 20891 H1          27.3920   -24.7260    39.4160 H       660  TIP510      0.2052
 20892 H2          26.9660   -23.4880    40.1760 H       660  TIP510      0.2052
 20893 OH2         -1.0380    13.3370   -33.5660 O.3     661  TIP511     -0.4105
 20894 H1          -1.1900    12.4350   -33.2820 H       661  TIP511      0.2052
 20895 H2          -1.7150    13.4980   -34.2230 H       661  TIP511      0.2052
 20896 OH2         12.2560    10.2390    41.3510 O.3     662  TIP512     -0.4105
 20897 H1          12.5170    10.2900    40.4320 H       662  TIP512      0.2052
 20898 H2          12.9510    10.6970    41.8240 H       662  TIP512      0.2052
 20899 OH2         -5.3630   -18.1110    52.4490 O.3     663  TIP513     -0.4105
 20900 H1          -6.3000   -18.2130    52.6180 H       663  TIP513      0.2052
 20901 H2          -5.1730   -17.2060    52.6930 H       663  TIP513      0.2052
 20902 OH2          3.9740    -5.2400    26.9910 O.3     664  TIP514     -0.4105
 20903 H1           4.3170    -5.5080    27.8430 H       664  TIP514      0.2052
 20904 H2           4.6320    -5.5380    26.3630 H       664  TIP514      0.2052
 20905 OH2        -14.5800    -2.8180    33.8560 O.3     665  TIP515     -0.4105
 20906 H1         -14.5740    -3.2750    33.0150 H       665  TIP515      0.2052
 20907 H2         -15.1050    -2.0330    33.6990 H       665  TIP515      0.2052
 20908 OH2         -4.5970   -24.3380    55.5030 O.3     666  TIP516     -0.4105
 20909 H1          -4.6860   -25.0190    56.1690 H       666  TIP516      0.2052
 20910 H2          -5.3930   -24.4130    54.9750 H       666  TIP516      0.2052
 20911 OH2        -28.2510     0.7870    46.2260 O.3     667  TIP517     -0.4105
 20912 H1         -27.9740     1.2840    45.4560 H       667  TIP517      0.2052
 20913 H2         -27.6830     1.0990    46.9300 H       667  TIP517      0.2052
 20914 OH2         10.8230   -32.2100    50.6550 O.3     668  TIP518     -0.4105
 20915 H1          10.5180   -31.8360    51.4810 H       668  TIP518      0.2052
 20916 H2          11.7700   -32.0750    50.6650 H       668  TIP518      0.2052
 20917 OH2          9.4410   -32.2630    41.7710 O.3     669  TIP519     -0.4105
 20918 H1           8.5920   -32.0160    41.4040 H       669  TIP519      0.2052
 20919 H2          10.0790   -31.7830    41.2440 H       669  TIP519      0.2052
 20920 OH2         11.8180   -11.2310    32.9680 O.3     670  TIP520     -0.4105
 20921 H1          10.8910   -11.0150    33.0710 H       670  TIP520      0.2052
 20922 H2          12.1340   -10.6200    32.3010 H       670  TIP520      0.2052
 20923 OH2          1.2280   -27.4340    40.1310 O.3     671  TIP521     -0.4105
 20924 H1           2.0500   -26.9850    39.9290 H       671  TIP521      0.2052
 20925 H2           1.4010   -28.3530    39.9270 H       671  TIP521      0.2052
 20926 OH2         23.4800   -27.3930    52.7260 O.3     672  TIP522     -0.4105
 20927 H1          24.3510   -27.6390    53.0370 H       672  TIP522      0.2052
 20928 H2          23.6330   -26.6460    52.1490 H       672  TIP522      0.2052
 20929 OH2         -2.0570   -25.3820   -42.7180 O.3     673  TIP523     -0.4105
 20930 H1          -1.2700   -24.8850   -42.9400 H       673  TIP523      0.2052
 20931 H2          -2.5230   -25.4780   -43.5490 H       673  TIP523      0.2052
 20932 OH2         -0.8760   -31.1520   -43.8830 O.3     674  TIP524     -0.4105
 20933 H1          -0.1140   -30.7610   -43.4550 H       674  TIP524      0.2052
 20934 H2          -0.9230   -30.7190   -44.7350 H       674  TIP524      0.2052
 20935 OH2         11.5850    -5.6540    31.3130 O.3     675  TIP525     -0.4105
 20936 H1          11.5310    -4.9490    31.9580 H       675  TIP525      0.2052
 20937 H2          10.9390    -5.4200    30.6470 H       675  TIP525      0.2052
 20938 OH2        -28.3200   -22.5870    37.6610 O.3     676  TIP526     -0.4105
 20939 H1         -27.5220   -22.6340    37.1340 H       676  TIP526      0.2052
 20940 H2         -28.8780   -21.9630    37.1960 H       676  TIP526      0.2052
 20941 OH2         21.8980   -13.2090   -35.9920 O.3     677  TIP527     -0.4105
 20942 H1          21.9530   -12.6010   -36.7290 H       677  TIP527      0.2052
 20943 H2          22.8090   -13.3970   -35.7670 H       677  TIP527      0.2052
 20944 OH2         18.5750   -24.8810   -46.9510 O.3     678  TIP528     -0.4105
 20945 H1          19.3930   -25.1100   -47.3920 H       678  TIP528      0.2052
 20946 H2          17.8890   -25.1850   -47.5440 H       678  TIP528      0.2052
 20947 OH2        -25.6490    21.5280    25.2960 O.3     679  TIP529     -0.4105
 20948 H1         -26.4010    21.0800    25.6830 H       679  TIP529      0.2052
 20949 H2         -25.4960    21.0690    24.4700 H       679  TIP529      0.2052
 20950 OH2         18.1510   -26.8380   -51.0350 O.3     680  TIP530     -0.4105
 20951 H1          18.5210   -27.5640   -51.5360 H       680  TIP530      0.2052
 20952 H2          18.6120   -26.0640   -51.3580 H       680  TIP530      0.2052
 20953 OH2         -8.8070    32.2010    28.8250 O.3     681  TIP531     -0.4105
 20954 H1          -9.0930    32.4040    29.7160 H       681  TIP531      0.2052
 20955 H2          -8.4460    33.0240    28.4950 H       681  TIP531      0.2052
 20956 OH2         11.4970   -20.0060   -42.8260 O.3     682  TIP532     -0.4105
 20957 H1          11.5940   -20.3230   -43.7240 H       682  TIP532      0.2052
 20958 H2          10.8040   -20.5500   -42.4530 H       682  TIP532      0.2052
 20959 OH2         -3.4700    21.5040    48.7910 O.3     683  TIP533     -0.4105
 20960 H1          -3.3810    22.3060    49.3070 H       683  TIP533      0.2052
 20961 H2          -3.3190    20.7970    49.4180 H       683  TIP533      0.2052
 20962 OH2         22.9750   -29.8280    40.4600 O.3     684  TIP534     -0.4105
 20963 H1          22.1680   -30.3030    40.6610 H       684  TIP534      0.2052
 20964 H2          22.7950   -29.3930    39.6270 H       684  TIP534      0.2052
 20965 OH2        -20.3480   -19.2860    36.2680 O.3     685  TIP535     -0.4105
 20966 H1         -20.3820   -18.3360    36.3860 H       685  TIP535      0.2052
 20967 H2         -20.4390   -19.4140    35.3240 H       685  TIP535      0.2052
 20968 OH2         25.8410    27.2720   -51.4610 O.3     686  TIP536     -0.4105
 20969 H1          25.4920    27.4340   -50.5840 H       686  TIP536      0.2052
 20970 H2          25.5400    28.0170   -51.9810 H       686  TIP536      0.2052
 20971 OH2        -23.2590   -28.8200    32.3280 O.3     687  TIP537     -0.4105
 20972 H1         -22.9280   -28.1430    32.9190 H       687  TIP537      0.2052
 20973 H2         -23.7690   -28.3400    31.6750 H       687  TIP537      0.2052
 20974 OH2          3.3730    21.0150    45.8580 O.3     688  TIP538     -0.4105
 20975 H1           3.9400    21.6350    45.3980 H       688  TIP538      0.2052
 20976 H2           3.7420    20.1560    45.6520 H       688  TIP538      0.2052
 20977 OH2        -27.5380   -14.0250   -18.0640 O.3     689  TIP539     -0.4105
 20978 H1         -27.3780   -13.5320   -17.2590 H       689  TIP539      0.2052
 20979 H2         -28.3240   -13.6250   -18.4370 H       689  TIP539      0.2052
 20980 OH2        -16.9990   -28.0250    41.0640 O.3     690  TIP540     -0.4105
 20981 H1         -16.9110   -27.7650    41.9810 H       690  TIP540      0.2052
 20982 H2         -17.8940   -27.7790    40.8300 H       690  TIP540      0.2052
 20983 OH2        -18.1680   -12.4040   -37.1900 O.3     691  TIP541     -0.4105
 20984 H1         -19.0830   -12.4010   -36.9110 H       691  TIP541      0.2052
 20985 H2         -17.9570   -13.3300   -37.3100 H       691  TIP541      0.2052
 20986 OH2          2.5550    22.8380   -27.6940 O.3     692  TIP542     -0.4105
 20987 H1           3.3940    23.0160   -28.1200 H       692  TIP542      0.2052
 20988 H2           2.7530    22.8530   -26.7580 H       692  TIP542      0.2052
 20989 OH2          5.3790    31.0130    53.9520 O.3     693  TIP543     -0.4105
 20990 H1           5.1340    30.1600    54.3100 H       693  TIP543      0.2052
 20991 H2           5.4720    31.5780    54.7190 H       693  TIP543      0.2052
 20992 OH2         -2.0430     1.6810    38.0420 O.3     694  TIP544     -0.4105
 20993 H1          -1.8870     1.8170    38.9760 H       694  TIP544      0.2052
 20994 H2          -1.8460     0.7550    37.8980 H       694  TIP544      0.2052
 20995 OH2          5.6570    18.0820    18.9130 O.3     695  TIP545     -0.4105
 20996 H1           6.5270    18.3210    19.2310 H       695  TIP545      0.2052
 20997 H2           5.1750    18.9090    18.8880 H       695  TIP545      0.2052
 20998 OH2        -21.6960    -2.7460   -22.6230 O.3     696  TIP546     -0.4105
 20999 H1         -21.9720    -3.4930   -22.0920 H       696  TIP546      0.2052
 21000 H2         -20.7420    -2.7400   -22.5500 H       696  TIP546      0.2052
 21001 OH2        -14.9210    25.6700   -50.0560 O.3     697  TIP547     -0.4105
 21002 H1         -14.7480    26.5550   -49.7340 H       697  TIP547      0.2052
 21003 H2         -14.2880    25.1200   -49.5960 H       697  TIP547      0.2052
 21004 OH2         -3.7330    -8.0480   -25.1330 O.3     698  TIP548     -0.4105
 21005 H1          -4.3610    -8.7010   -25.4400 H       698  TIP548      0.2052
 21006 H2          -4.2010    -7.5690   -24.4480 H       698  TIP548      0.2052
 21007 OH2         32.9720     3.4230   -32.2200 O.3     699  TIP549     -0.4105
 21008 H1          32.2740     3.4730   -32.8720 H       699  TIP549      0.2052
 21009 H2          33.7320     3.8140   -32.6500 H       699  TIP549      0.2052
 21010 OH2          9.2630   -26.3780    42.4560 O.3     700  TIP550     -0.4105
 21011 H1           9.2230   -27.1690    41.9200 H       700  TIP550      0.2052
 21012 H2           9.8850   -25.8100    42.0010 H       700  TIP550      0.2052
 21013 OH2         29.2890   -26.3590    45.0000 O.3     701  TIP551     -0.4105
 21014 H1          28.5750   -26.9920    45.0710 H       701  TIP551      0.2052
 21015 H2          29.1360   -25.9150    44.1660 H       701  TIP551      0.2052
 21016 OH2        -19.7360    -4.1460   -15.4630 O.3     702  TIP552     -0.4105
 21017 H1         -20.6860    -4.1020   -15.5720 H       702  TIP552      0.2052
 21018 H2         -19.3930    -3.4900   -16.0700 H       702  TIP552      0.2052
 21019 OH2         21.4270   -22.9710    53.3430 O.3     703  TIP553     -0.4105
 21020 H1          21.6050   -22.7940    52.4190 H       703  TIP553      0.2052
 21021 H2          20.4840   -23.1350    53.3780 H       703  TIP553      0.2052
 21022 OH2        -31.5420    31.7510   -18.9490 O.3     704  TIP554     -0.4105
 21023 H1         -31.5050    31.0110   -19.5550 H       704  TIP554      0.2052
 21024 H2         -32.0810    31.4390   -18.2220 H       704  TIP554      0.2052
 21025 OH2        -13.0510   -12.1050   -37.0140 O.3     705  TIP555     -0.4105
 21026 H1         -12.9610   -11.8150   -36.1060 H       705  TIP555      0.2052
 21027 H2         -12.3850   -11.6110   -37.4910 H       705  TIP555      0.2052
 21028 OH2         17.6440     4.0050    37.8160 O.3     706  TIP556     -0.4105
 21029 H1          17.0520     4.6240    38.2430 H       706  TIP556      0.2052
 21030 H2          18.0190     4.4960    37.0840 H       706  TIP556      0.2052
 21031 OH2         19.3060     1.5660   -21.5900 O.3     707  TIP557     -0.4105
 21032 H1          18.7900     2.3620   -21.4610 H       707  TIP557      0.2052
 21033 H2          19.9880     1.8210   -22.2120 H       707  TIP557      0.2052
 21034 OH2        -31.6630    -2.6680    34.0520 O.3     708  TIP558     -0.4105
 21035 H1         -31.5590    -2.1020    33.2860 H       708  TIP558      0.2052
 21036 H2         -32.3640    -2.2580    34.5590 H       708  TIP558      0.2052
 21037 OH2         10.6890    18.2470    31.3680 O.3     709  TIP559     -0.4105
 21038 H1           9.8650    18.3820    31.8370 H       709  TIP559      0.2052
 21039 H2          10.9430    19.1210    31.0720 H       709  TIP559      0.2052
 21040 OH2         -1.7160   -14.7300   -55.0220 O.3     710  TIP560     -0.4105
 21041 H1          -1.5920   -14.5210   -55.9480 H       710  TIP560      0.2052
 21042 H2          -2.2850   -15.5000   -55.0250 H       710  TIP560      0.2052
 21043 OH2        -18.1740    24.1740   -47.8160 O.3     711  TIP561     -0.4105
 21044 H1         -18.6890    23.7780   -48.5190 H       711  TIP561      0.2052
 21045 H2         -17.3900    23.6290   -47.7550 H       711  TIP561      0.2052
 21046 OH2         29.3170     5.1510    36.9780 O.3     712  TIP562     -0.4105
 21047 H1          29.3750     5.8060    37.6740 H       712  TIP562      0.2052
 21048 H2          29.7510     4.3780    37.3390 H       712  TIP562      0.2052
 21049 OH2        -30.2420    17.4840    45.5890 O.3     713  TIP563     -0.4105
 21050 H1         -30.6870    16.9110    46.2130 H       713  TIP563      0.2052
 21051 H2         -30.3720    18.3660    45.9370 H       713  TIP563      0.2052
 21052 OH2        -30.6740   -17.6640   -30.7990 O.3     714  TIP564     -0.4105
 21053 H1         -30.9360   -17.8360   -31.7030 H       714  TIP564      0.2052
 21054 H2         -29.8800   -17.1360   -30.8750 H       714  TIP564      0.2052
 21055 OH2        -18.5060    13.8630    38.0620 O.3     715  TIP565     -0.4105
 21056 H1         -17.8760    14.5670    38.2160 H       715  TIP565      0.2052
 21057 H2         -18.8030    14.0000    37.1630 H       715  TIP565      0.2052
 21058 OH2        -17.5610   -16.6810   -52.7210 O.3     716  TIP566     -0.4105
 21059 H1         -18.1190   -17.4390   -52.8960 H       716  TIP566      0.2052
 21060 H2         -16.9140   -16.6910   -53.4260 H       716  TIP566      0.2052
 21061 OH2         16.5480     4.0770   -28.2020 O.3     717  TIP567     -0.4105
 21062 H1          16.2960     3.2330   -28.5770 H       717  TIP567      0.2052
 21063 H2          17.2510     4.3910   -28.7700 H       717  TIP567      0.2052
 21064 OH2          0.7870     1.1210   -32.4330 O.3     718  TIP568     -0.4105
 21065 H1           1.6410     0.8460   -32.7680 H       718  TIP568      0.2052
 21066 H2           0.7210     2.0450   -32.6750 H       718  TIP568      0.2052
 21067 OH2         25.6790   -21.6500   -39.8930 O.3     719  TIP569     -0.4105
 21068 H1          25.1730   -21.9500   -39.1380 H       719  TIP569      0.2052
 21069 H2          25.7470   -20.7030   -39.7750 H       719  TIP569      0.2052
 21070 OH2          9.4290    24.0830    54.2210 O.3     720  TIP570     -0.4105
 21071 H1           9.1480    23.3920    54.8200 H       720  TIP570      0.2052
 21072 H2          10.1630    23.7000    53.7410 H       720  TIP570      0.2052
 21073 OH2         -0.5650    16.6730    24.8870 O.3     721  TIP571     -0.4105
 21074 H1          -0.1410    15.9960    24.3600 H       721  TIP571      0.2052
 21075 H2          -0.8060    17.3520    24.2570 H       721  TIP571      0.2052
 21076 OH2          8.0280    -2.5240   -48.5900 O.3     722  TIP572     -0.4105
 21077 H1           8.8710    -2.1310   -48.3670 H       722  TIP572      0.2052
 21078 H2           7.4310    -1.7810   -48.6750 H       722  TIP572      0.2052
 21079 OH2        -20.2920    -6.8750    38.1350 O.3     723  TIP573     -0.4105
 21080 H1         -21.1860    -6.8000    37.8020 H       723  TIP573      0.2052
 21081 H2         -19.8550    -6.0790    37.8300 H       723  TIP573      0.2052
 21082 OH2         26.2110   -24.0430   -18.3760 O.3     724  TIP574     -0.4105
 21083 H1          27.0900   -23.7140   -18.1860 H       724  TIP574      0.2052
 21084 H2          26.0900   -23.8780   -19.3110 H       724  TIP574      0.2052
 21085 OH2        -22.6760   -17.1980   -20.2650 O.3     725  TIP575     -0.4105
 21086 H1         -23.0810   -17.9380   -19.8130 H       725  TIP575      0.2052
 21087 H2         -21.7520   -17.2420   -20.0200 H       725  TIP575      0.2052
 21088 OH2        -22.2820    27.5520    17.3790 O.3     726  TIP576     -0.4105
 21089 H1         -21.4150    27.8780    17.1380 H       726  TIP576      0.2052
 21090 H2         -22.8050    28.3420    17.5180 H       726  TIP576      0.2052
 21091 OH2        -24.9680   -30.7740   -54.5820 O.3     727  TIP577     -0.4105
 21092 H1         -25.3790   -30.5900   -53.7370 H       727  TIP577      0.2052
 21093 H2         -24.7070   -29.9150   -54.9140 H       727  TIP577      0.2052
 21094 OH2        -25.6760    -9.3080   -30.5260 O.3     728  TIP578     -0.4105
 21095 H1         -26.4660    -8.9270   -30.1410 H       728  TIP578      0.2052
 21096 H2         -25.5480    -8.8210   -31.3410 H       728  TIP578      0.2052
 21097 OH2         17.1200    -0.1950   -48.1060 O.3     729  TIP579     -0.4105
 21098 H1          16.3710    -0.5950   -48.5460 H       729  TIP579      0.2052
 21099 H2          17.1770    -0.6490   -47.2660 H       729  TIP579      0.2052
 21100 OH2          5.0070   -24.8900   -44.9390 O.3     730  TIP580     -0.4105
 21101 H1           4.9960   -25.7630   -44.5450 H       730  TIP580      0.2052
 21102 H2           5.8370   -24.8520   -45.4140 H       730  TIP580      0.2052
 21103 OH2         13.8410   -29.4750    54.6810 O.3     731  TIP581     -0.4105
 21104 H1          14.0320   -29.3100    55.6040 H       731  TIP581      0.2052
 21105 H2          14.6910   -29.4070    54.2450 H       731  TIP581      0.2052
 21106 OH2         19.2150    15.1340    45.9920 O.3     732  TIP582     -0.4105
 21107 H1          18.7130    15.3140    45.1970 H       732  TIP582      0.2052
 21108 H2          19.3550    15.9950    46.3860 H       732  TIP582      0.2052
 21109 OH2        -17.7110     2.8580   -54.3770 O.3     733  TIP583     -0.4105
 21110 H1         -16.8560     2.5250   -54.6490 H       733  TIP583      0.2052
 21111 H2         -17.5810     3.1460   -53.4740 H       733  TIP583      0.2052
 21112 OH2        -28.9430    32.7130    42.3090 O.3     734  TIP584     -0.4105
 21113 H1         -28.0610    32.6300    42.6720 H       734  TIP584      0.2052
 21114 H2         -29.0140    31.9930    41.6820 H       734  TIP584      0.2052
 21115 OH2         28.2440   -11.1650    51.2580 O.3     735  TIP585     -0.4105
 21116 H1          28.5330   -10.3700    51.7060 H       735  TIP585      0.2052
 21117 H2          28.8670   -11.8370    51.5340 H       735  TIP585      0.2052
 21118 OH2         12.9230   -17.8840    24.0920 O.3     736  TIP586     -0.4105
 21119 H1          12.6470   -18.6230    24.6340 H       736  TIP586      0.2052
 21120 H2          12.8420   -18.2010    23.1930 H       736  TIP586      0.2052
 21121 OH2        -27.9950   -11.6380   -52.7750 O.3     737  TIP587     -0.4105
 21122 H1         -27.4310   -11.9810   -52.0820 H       737  TIP587      0.2052
 21123 H2         -27.5630   -11.9010   -53.5880 H       737  TIP587      0.2052
 21124 OH2         20.3400   -13.5860   -19.5910 O.3     738  TIP588     -0.4105
 21125 H1          19.4320   -13.6860   -19.3050 H       738  TIP588      0.2052
 21126 H2          20.8610   -13.8250   -18.8250 H       738  TIP588      0.2052
 21127 OH2          4.2700     2.4430    49.8320 O.3     739  TIP589     -0.4105
 21128 H1           5.1470     2.0910    49.9800 H       739  TIP589      0.2052
 21129 H2           4.4040     3.1790    49.2330 H       739  TIP589      0.2052
 21130 OH2         18.3640   -10.0850   -48.0720 O.3     740  TIP590     -0.4105
 21131 H1          18.1670   -10.4850   -47.2260 H       740  TIP590      0.2052
 21132 H2          17.5130    -9.8040   -48.4090 H       740  TIP590      0.2052
 21133 OH2         21.9200   -21.5420   -49.7320 O.3     741  TIP591     -0.4105
 21134 H1          21.3380   -21.0890   -50.3420 H       741  TIP591      0.2052
 21135 H2          21.3310   -21.9530   -49.0990 H       741  TIP591      0.2052
 21136 OH2        -22.5550    13.2910   -52.8930 O.3     742  TIP592     -0.4105
 21137 H1         -22.3530    13.5980   -53.7770 H       742  TIP592      0.2052
 21138 H2         -22.4660    14.0690   -52.3430 H       742  TIP592      0.2052
 21139 OH2        -30.3790   -25.9800    44.6140 O.3     743  TIP593     -0.4105
 21140 H1         -30.0260   -26.2370    45.4660 H       743  TIP593      0.2052
 21141 H2         -29.8020   -25.2760    44.3170 H       743  TIP593      0.2052
 21142 OH2         19.6420     9.7220    27.9580 O.3     744  TIP594     -0.4105
 21143 H1          19.7650    10.6560    28.1300 H       744  TIP594      0.2052
 21144 H2          20.4760     9.3210    28.2040 H       744  TIP594      0.2052
 21145 OH2         32.9380   -16.2500   -52.6230 O.3     745  TIP595     -0.4105
 21146 H1          33.3500   -16.0470   -53.4630 H       745  TIP595      0.2052
 21147 H2          33.0670   -17.1920   -52.5140 H       745  TIP595      0.2052
 21148 OH2         -5.1810    12.3580    27.1370 O.3     746  TIP596     -0.4105
 21149 H1          -6.0520    12.2100    27.5060 H       746  TIP596      0.2052
 21150 H2          -5.1540    13.2970    26.9530 H       746  TIP596      0.2052
 21151 OH2         13.9480   -14.9820    51.4580 O.3     747  TIP597     -0.4105
 21152 H1          13.9980   -14.1330    51.8970 H       747  TIP597      0.2052
 21153 H2          14.5820   -14.9190    50.7430 H       747  TIP597      0.2052
 21154 OH2         22.0300   -10.0500   -40.5880 O.3     748  TIP598     -0.4105
 21155 H1          22.2910   -10.8370   -41.0660 H       748  TIP598      0.2052
 21156 H2          22.7570    -9.4400   -40.7130 H       748  TIP598      0.2052
 21157 OH2         15.0320     3.2650   -31.2530 O.3     749  TIP599     -0.4105
 21158 H1          15.5900     2.5000   -31.3930 H       749  TIP599      0.2052
 21159 H2          15.5990     4.0130   -31.4410 H       749  TIP599      0.2052
 21160 OH2         19.8440   -15.0720    50.9100 O.3     750  TIP600     -0.4105
 21161 H1          20.0500   -15.7840    50.3040 H       750  TIP600      0.2052
 21162 H2          19.8120   -15.4900    51.7700 H       750  TIP600      0.2052
 21163 OH2         -7.3070   -16.3600    35.2450 O.3     751  TIP601     -0.4105
 21164 H1          -7.0230   -17.2580    35.4150 H       751  TIP601      0.2052
 21165 H2          -7.2750   -16.2760    34.2920 H       751  TIP601      0.2052
 21166 OH2         13.8380     5.4500   -26.7670 O.3     752  TIP602     -0.4105
 21167 H1          13.8550     6.1760   -26.1440 H       752  TIP602      0.2052
 21168 H2          14.6970     5.4740   -27.1870 H       752  TIP602      0.2052
 21169 OH2         18.0210   -19.4220    38.8400 O.3     753  TIP603     -0.4105
 21170 H1          18.3550   -18.5270    38.7790 H       753  TIP603      0.2052
 21171 H2          18.3320   -19.7370    39.6890 H       753  TIP603      0.2052
 21172 OH2          3.3060    25.7590    39.5040 O.3     754  TIP604     -0.4105
 21173 H1           2.5980    25.7410    40.1480 H       754  TIP604      0.2052
 21174 H2           3.7860    24.9440    39.6520 H       754  TIP604      0.2052
 21175 OH2        -29.6450     8.4970    52.4680 O.3     755  TIP605     -0.4105
 21176 H1         -28.9340     9.0600    52.1620 H       755  TIP605      0.2052
 21177 H2         -29.8740     7.9640    51.7060 H       755  TIP605      0.2052
 21178 OH2        -11.5480     6.7880    55.5400 O.3     756  TIP606     -0.4105
 21179 H1         -10.6150     6.7350    55.3330 H       756  TIP606      0.2052
 21180 H2         -11.6030     7.4460    56.2330 H       756  TIP606      0.2052
 21181 OH2         26.2830    10.8970   -54.9670 O.3     757  TIP607     -0.4105
 21182 H1          26.4710    10.7450   -54.0410 H       757  TIP607      0.2052
 21183 H2          26.6560    11.7600   -55.1480 H       757  TIP607      0.2052
 21184 OH2         22.2560    -9.1170    44.7240 O.3     758  TIP608     -0.4105
 21185 H1          21.4770    -9.6650    44.8200 H       758  TIP608      0.2052
 21186 H2          22.3450    -8.6780    45.5700 H       758  TIP608      0.2052
 21187 OH2         29.4440   -21.2360   -49.3480 O.3     759  TIP609     -0.4105
 21188 H1          30.3740   -21.3040   -49.1310 H       759  TIP609      0.2052
 21189 H2          29.3250   -20.3220   -49.6070 H       759  TIP609      0.2052
 21190 OH2         16.3220   -15.9890    53.6960 O.3     760  TIP610     -0.4105
 21191 H1          17.1970   -15.6690    53.9180 H       760  TIP610      0.2052
 21192 H2          15.7950   -15.1970    53.5950 H       760  TIP610      0.2052
 21193 OH2         -7.7240    11.9770    28.4050 O.3     761  TIP611     -0.4105
 21194 H1          -7.2560    11.6960    29.1920 H       761  TIP611      0.2052
 21195 H2          -8.6070    11.6240    28.5130 H       761  TIP611      0.2052
 21196 OH2         20.1170    10.6960    19.2130 O.3     762  TIP612     -0.4105
 21197 H1          21.0080    10.4980    19.5040 H       762  TIP612      0.2052
 21198 H2          19.9630    10.0940    18.4850 H       762  TIP612      0.2052
 21199 OH2          1.6260    30.3910    27.5920 O.3     763  TIP613     -0.4105
 21200 H1           2.3610    29.8110    27.3940 H       763  TIP613      0.2052
 21201 H2           1.2850    30.6470    26.7350 H       763  TIP613      0.2052
 21202 OH2         15.1630   -14.4950   -22.7570 O.3     764  TIP614     -0.4105
 21203 H1          14.8990   -14.4160   -23.6740 H       764  TIP614      0.2052
 21204 H2          15.4540   -13.6170   -22.5150 H       764  TIP614      0.2052
 21205 OH2        -32.6270    -3.4790    22.2140 O.3     765  TIP615     -0.4105
 21206 H1         -33.2150    -3.2410    22.9300 H       765  TIP615      0.2052
 21207 H2         -33.1180    -4.1230    21.7030 H       765  TIP615      0.2052
 21208 OH2        -27.7440    12.0460   -22.2350 O.3     766  TIP616     -0.4105
 21209 H1         -28.5610    11.8430   -21.7800 H       766  TIP616      0.2052
 21210 H2         -27.9330    11.8760   -23.1570 H       766  TIP616      0.2052
 21211 OH2        -15.3200    22.7760   -25.4250 O.3     767  TIP617     -0.4105
 21212 H1         -15.8090    23.2060   -26.1260 H       767  TIP617      0.2052
 21213 H2         -14.5150    23.2870   -25.3450 H       767  TIP617      0.2052
 21214 OH2          1.9370   -19.7800   -44.3190 O.3     768  TIP618     -0.4105
 21215 H1           1.6590   -18.9970   -43.8430 H       768  TIP618      0.2052
 21216 H2           1.9940   -20.4600   -43.6480 H       768  TIP618      0.2052
 21217 OH2         -8.7290    31.4720    37.8070 O.3     769  TIP619     -0.4105
 21218 H1          -7.8290    31.6160    38.0970 H       769  TIP619      0.2052
 21219 H2          -8.6570    31.3210    36.8640 H       769  TIP619      0.2052
 21220 OH2         -1.8370   -23.9610   -48.1200 O.3     770  TIP620     -0.4105
 21221 H1          -1.2090   -24.4580   -47.5950 H       770  TIP620      0.2052
 21222 H2          -2.6940   -24.2670   -47.8220 H       770  TIP620      0.2052
 21223 OH2         11.7820    28.8640    13.4300 O.3     771  TIP621     -0.4105
 21224 H1          11.8350    28.0440    13.9210 H       771  TIP621      0.2052
 21225 H2          12.5250    29.3800    13.7450 H       771  TIP621      0.2052
 21226 OH2        -18.9860    -8.1650   -45.1200 O.3     772  TIP622     -0.4105
 21227 H1         -19.8950    -7.8850   -45.2220 H       772  TIP622      0.2052
 21228 H2         -18.4810    -7.5370   -45.6360 H       772  TIP622      0.2052
 21229 OH2         21.8740    14.3590    24.7220 O.3     773  TIP623     -0.4105
 21230 H1          21.2400    14.5740    24.0380 H       773  TIP623      0.2052
 21231 H2          22.6310    14.9130    24.5300 H       773  TIP623      0.2052
 21232 OH2        -31.9260   -22.1260    29.1490 O.3     774  TIP624     -0.4105
 21233 H1         -32.6190   -22.1330    28.4900 H       774  TIP624      0.2052
 21234 H2         -31.5580   -23.0100    29.1200 H       774  TIP624      0.2052
 21235 OH2        -20.9040   -16.0780    16.5630 O.3     775  TIP625     -0.4105
 21236 H1         -21.1570   -15.1590    16.4790 H       775  TIP625      0.2052
 21237 H2         -20.4890   -16.2900    15.7260 H       775  TIP625      0.2052
 21238 OH2         15.3340   -23.2830   -18.9310 O.3     776  TIP626     -0.4105
 21239 H1          14.9580   -23.3390   -19.8090 H       776  TIP626      0.2052
 21240 H2          16.2170   -23.6400   -19.0250 H       776  TIP626      0.2052
 21241 OH2        -13.9530   -11.7130    38.4750 O.3     777  TIP627     -0.4105
 21242 H1         -14.1420   -11.3820    37.5970 H       777  TIP627      0.2052
 21243 H2         -14.2350   -12.6270    38.4520 H       777  TIP627      0.2052
 21244 OH2        -22.5310     5.3240    26.6910 O.3     778  TIP628     -0.4105
 21245 H1         -22.7980     4.7070    26.0110 H       778  TIP628      0.2052
 21246 H2         -23.3440     5.5500    27.1430 H       778  TIP628      0.2052
 21247 OH2        -13.5820    -4.7740   -44.5000 O.3     779  TIP629     -0.4105
 21248 H1         -14.2940    -5.2320   -44.9460 H       779  TIP629      0.2052
 21249 H2         -13.3490    -5.3470   -43.7700 H       779  TIP629      0.2052
 21250 OH2         -4.7210   -32.9260    36.0910 O.3     780  TIP630     -0.4105
 21251 H1          -4.8920   -32.1510    35.5560 H       780  TIP630      0.2052
 21252 H2          -4.9380   -33.6630    35.5200 H       780  TIP630      0.2052
 21253 OH2          0.8660   -23.4120    24.5510 O.3     781  TIP631     -0.4105
 21254 H1           0.3060   -22.7970    25.0240 H       781  TIP631      0.2052
 21255 H2           1.1310   -22.9380    23.7630 H       781  TIP631      0.2052
 21256 OH2         15.8760   -15.4420   -46.8480 O.3     782  TIP632     -0.4105
 21257 H1          15.8810   -16.1430   -47.5010 H       782  TIP632      0.2052
 21258 H2          15.1940   -15.6980   -46.2280 H       782  TIP632      0.2052
 21259 OH2        -28.8900    -7.0560   -49.0260 O.3     783  TIP633     -0.4105
 21260 H1         -29.2150    -7.0980   -49.9250 H       783  TIP633      0.2052
 21261 H2         -29.2510    -6.2410   -48.6780 H       783  TIP633      0.2052
 21262 OH2         -5.9270    23.0480   -32.1800 O.3     784  TIP634     -0.4105
 21263 H1          -5.2060    22.9750   -32.8060 H       784  TIP634      0.2052
 21264 H2          -6.4800    23.7450   -32.5330 H       784  TIP634      0.2052
 21265 OH2         20.4510   -13.2030   -54.2160 O.3     785  TIP635     -0.4105
 21266 H1          20.1640   -13.3890   -53.3220 H       785  TIP635      0.2052
 21267 H2          21.2210   -12.6440   -54.1090 H       785  TIP635      0.2052
 21268 OH2        -16.3330   -29.5650    27.5360 O.3     786  TIP636     -0.4105
 21269 H1         -16.6010   -28.7730    27.0690 H       786  TIP636      0.2052
 21270 H2         -15.7720   -29.2480    28.2440 H       786  TIP636      0.2052
 21271 OH2         -1.6180     4.9720    41.8110 O.3     787  TIP637     -0.4105
 21272 H1          -2.4590     4.5680    41.5980 H       787  TIP637      0.2052
 21273 H2          -1.7490     5.3590    42.6760 H       787  TIP637      0.2052
 21274 OH2         12.5510    32.3860   -45.1760 O.3     788  TIP638     -0.4105
 21275 H1          12.5270    32.1850   -44.2400 H       788  TIP638      0.2052
 21276 H2          11.6690    32.1820   -45.4880 H       788  TIP638      0.2052
 21277 OH2         30.5580    -7.7710    23.9940 O.3     789  TIP639     -0.4105
 21278 H1          29.7550    -7.7880    23.4730 H       789  TIP639      0.2052
 21279 H2          30.9720    -8.6170    23.8250 H       789  TIP639      0.2052
 21280 OH2        -19.4060   -22.1500    30.7700 O.3     790  TIP640     -0.4105
 21281 H1         -19.3880   -23.0910    30.5960 H       790  TIP640      0.2052
 21282 H2         -19.1510   -22.0720    31.6900 H       790  TIP640      0.2052
 21283 OH2        -23.5800    30.4870    33.5330 O.3     791  TIP641     -0.4105
 21284 H1         -23.6590    29.5370    33.4520 H       791  TIP641      0.2052
 21285 H2         -23.1760    30.6220    34.3910 H       791  TIP641      0.2052
 21286 OH2          3.3580   -15.0620   -31.8140 O.3     792  TIP642     -0.4105
 21287 H1           4.0400   -15.3430   -31.2030 H       792  TIP642      0.2052
 21288 H2           3.4200   -15.6790   -32.5430 H       792  TIP642      0.2052
 21289 OH2          4.3600   -26.4180    43.1060 O.3     793  TIP643     -0.4105
 21290 H1           3.8580   -27.2220    43.2410 H       793  TIP643      0.2052
 21291 H2           4.2810   -26.2400    42.1680 H       793  TIP643      0.2052
 21292 OH2          0.5040   -28.5740   -36.1110 O.3     794  TIP644     -0.4105
 21293 H1           0.4450   -29.4900   -36.3810 H       794  TIP644      0.2052
 21294 H2           0.8990   -28.1270   -36.8600 H       794  TIP644      0.2052
 21295 OH2        -29.5240    26.1280   -48.6980 O.3     795  TIP645     -0.4105
 21296 H1         -28.9840    26.8590   -48.3950 H       795  TIP645      0.2052
 21297 H2         -29.0000    25.7100   -49.3810 H       795  TIP645      0.2052
 21298 OH2         22.4180    23.3110   -42.7030 O.3     796  TIP646     -0.4105
 21299 H1          22.2660    22.4950   -43.1810 H       796  TIP646      0.2052
 21300 H2          22.5690    23.9640   -43.3870 H       796  TIP646      0.2052
 21301 OH2         21.1500    26.3820    33.6130 O.3     797  TIP647     -0.4105
 21302 H1          21.4250    27.2510    33.3200 H       797  TIP647      0.2052
 21303 H2          21.8560    26.0870    34.1880 H       797  TIP647      0.2052
 21304 OH2         20.6220    -2.5660   -35.4080 O.3     798  TIP648     -0.4105
 21305 H1          20.4270    -1.6370   -35.5320 H       798  TIP648      0.2052
 21306 H2          19.7950    -3.0110   -35.5920 H       798  TIP648      0.2052
 21307 OH2        -10.6010    29.5350    43.1200 O.3     799  TIP649     -0.4105
 21308 H1         -11.0090    29.9810    43.8630 H       799  TIP649      0.2052
 21309 H2         -10.5330    30.2080    42.4430 H       799  TIP649      0.2052
 21310 OH2        -10.0020    -3.5300   -22.4890 O.3     800  TIP650     -0.4105
 21311 H1         -10.7560    -3.0190   -22.7830 H       800  TIP650      0.2052
 21312 H2         -10.2740    -4.4410   -22.5940 H       800  TIP650      0.2052
 21313 OH2         14.6970     1.3760   -27.1730 O.3     801  TIP651     -0.4105
 21314 H1          13.9440     1.2390   -27.7470 H       801  TIP651      0.2052
 21315 H2          14.4070     2.0450   -26.5530 H       801  TIP651      0.2052
 21316 OH2        -27.4610    33.0140   -47.4750 O.3     802  TIP652     -0.4105
 21317 H1         -27.1740    32.1050   -47.5650 H       802  TIP652      0.2052
 21318 H2         -27.1380    33.2830   -46.6150 H       802  TIP652      0.2052
 21319 OH2        -10.4970   -12.5380    23.9030 O.3     803  TIP653     -0.4105
 21320 H1          -9.6650   -12.7710    24.3150 H       803  TIP653      0.2052
 21321 H2         -10.3770   -11.6330    23.6140 H       803  TIP653      0.2052
 21322 OH2          4.0850    19.7190   -47.0390 O.3     804  TIP654     -0.4105
 21323 H1           3.2870    20.2370   -46.9270 H       804  TIP654      0.2052
 21324 H2           3.9240    18.9190   -46.5400 H       804  TIP654      0.2052
 21325 OH2         -1.1670   -11.6220    28.2140 O.3     805  TIP655     -0.4105
 21326 H1          -1.1740   -10.9230    28.8680 H       805  TIP655      0.2052
 21327 H2          -0.7830   -12.3720    28.6680 H       805  TIP655      0.2052
 21328 OH2         -6.8420     8.0520    34.9380 O.3     806  TIP656     -0.4105
 21329 H1          -6.7220     8.9230    35.3160 H       806  TIP656      0.2052
 21330 H2          -7.3020     7.5570    35.6160 H       806  TIP656      0.2052
 21331 OH2         14.5800     1.2350   -54.3250 O.3     807  TIP657     -0.4105
 21332 H1          14.5300     1.8610   -53.6030 H       807  TIP657      0.2052
 21333 H2          14.9890     1.7240   -55.0390 H       807  TIP657      0.2052
 21334 OH2          3.2200   -27.9360   -29.6930 O.3     808  TIP658     -0.4105
 21335 H1           3.6100   -27.4680   -30.4310 H       808  TIP658      0.2052
 21336 H2           2.2910   -28.0010   -29.9140 H       808  TIP658      0.2052
 21337 OH2         12.4920    20.9470   -30.5970 O.3     809  TIP659     -0.4105
 21338 H1          11.6760    20.6210   -30.2170 H       809  TIP659      0.2052
 21339 H2          12.4550    20.6750   -31.5140 H       809  TIP659      0.2052
 21340 OH2         -2.7300    -2.0840    35.0680 O.3     810  TIP660     -0.4105
 21341 H1          -2.4200    -2.9350    34.7560 H       810  TIP660      0.2052
 21342 H2          -2.7390    -1.5310    34.2870 H       810  TIP660      0.2052
 21343 OH2        -12.8130     2.6210    45.3360 O.3     811  TIP661     -0.4105
 21344 H1         -13.5430     2.3510    45.8940 H       811  TIP661      0.2052
 21345 H2         -13.1540     3.3650    44.8390 H       811  TIP661      0.2052
 21346 OH2        -28.7100    17.9110   -55.2610 O.3     812  TIP662     -0.4105
 21347 H1         -28.7100    18.5290   -55.9920 H       812  TIP662      0.2052
 21348 H2         -29.3530    18.2650   -54.6470 H       812  TIP662      0.2052
 21349 OH2         18.8780   -25.4020   -38.5520 O.3     813  TIP663     -0.4105
 21350 H1          19.7800   -25.5360   -38.8420 H       813  TIP663      0.2052
 21351 H2          18.5080   -24.7930   -39.1910 H       813  TIP663      0.2052
 21352 OH2          8.2260    25.3750   -19.0480 O.3     814  TIP664     -0.4105
 21353 H1           7.4010    25.7540   -19.3520 H       814  TIP664      0.2052
 21354 H2           8.0040    24.4740   -18.8140 H       814  TIP664      0.2052
 21355 OH2        -28.0040    27.6370   -42.3310 O.3     815  TIP665     -0.4105
 21356 H1         -28.6370    28.3060   -42.5920 H       815  TIP665      0.2052
 21357 H2         -27.3540    27.6340   -43.0350 H       815  TIP665      0.2052
 21358 OH2        -19.0860   -30.6850    39.4370 O.3     816  TIP666     -0.4105
 21359 H1         -19.8360   -31.2730    39.5310 H       816  TIP666      0.2052
 21360 H2         -18.3220   -31.2580    39.5090 H       816  TIP666      0.2052
 21361 OH2          9.9390   -14.1350   -52.6240 O.3     817  TIP667     -0.4105
 21362 H1           9.4360   -13.3430   -52.4380 H       817  TIP667      0.2052
 21363 H2          10.1940   -14.0480   -53.5430 H       817  TIP667      0.2052
 21364 OH2          9.0630   -25.1830   -28.1930 O.3     818  TIP668     -0.4105
 21365 H1           9.8990   -25.3390   -28.6320 H       818  TIP668      0.2052
 21366 H2           8.7860   -26.0490   -27.8910 H       818  TIP668      0.2052
 21367 OH2         19.2590   -11.9460   -38.3580 O.3     819  TIP669     -0.4105
 21368 H1          18.6810   -12.3940   -38.9760 H       819  TIP669      0.2052
 21369 H2          18.7440   -11.2020   -38.0440 H       819  TIP669      0.2052
 21370 OH2          8.9580    32.9780    44.3020 O.3     820  TIP670     -0.4105
 21371 H1           8.2190    32.3970    44.1200 H       820  TIP670      0.2052
 21372 H2           9.0140    33.5430    43.5310 H       820  TIP670      0.2052
 21373 OH2          0.1770     6.9360    41.2560 O.3     821  TIP671     -0.4105
 21374 H1          -0.3030     6.1210    41.4010 H       821  TIP671      0.2052
 21375 H2          -0.4740     7.6250    41.3850 H       821  TIP671      0.2052
 21376 OH2         29.3220   -18.6050    37.5860 O.3     822  TIP672     -0.4105
 21377 H1          29.7170   -19.4440    37.8210 H       822  TIP672      0.2052
 21378 H2          28.6420   -18.8290    36.9510 H       822  TIP672      0.2052
 21379 OH2         -2.5680   -22.2270   -50.4560 O.3     823  TIP673     -0.4105
 21380 H1          -2.4400   -22.8310   -49.7250 H       823  TIP673      0.2052
 21381 H2          -1.8570   -21.5920   -50.3710 H       823  TIP673      0.2052
 21382 OH2         -7.5680    -3.6330   -33.9770 O.3     824  TIP674     -0.4105
 21383 H1          -7.4600    -2.7530   -34.3350 H       824  TIP674      0.2052
 21384 H2          -6.7470    -4.0790   -34.1840 H       824  TIP674      0.2052
 21385 OH2         -2.6790    16.1460    26.4990 O.3     825  TIP675     -0.4105
 21386 H1          -3.2270    16.8740    26.2050 H       825  TIP675      0.2052
 21387 H2          -1.8280    16.3070    26.0920 H       825  TIP675      0.2052
 21388 OH2         13.3000   -12.2820    48.3040 O.3     826  TIP676     -0.4105
 21389 H1          12.5960   -12.7440    48.7580 H       826  TIP676      0.2052
 21390 H2          14.0820   -12.8060    48.4790 H       826  TIP676      0.2052
 21391 OH2          1.9750    11.7570   -25.4160 O.3     827  TIP677     -0.4105
 21392 H1           2.1550    11.2460   -24.6270 H       827  TIP677      0.2052
 21393 H2           1.0800    11.5180   -25.6580 H       827  TIP677      0.2052
 21394 OH2        -24.4440    26.2080    54.6810 O.3     828  TIP678     -0.4105
 21395 H1         -24.1240    25.3250    54.4970 H       828  TIP678      0.2052
 21396 H2         -23.6540    26.7460    54.7230 H       828  TIP678      0.2052
 21397 OH2         19.6330   -21.7740   -22.1010 O.3     829  TIP679     -0.4105
 21398 H1          19.4130   -20.9080   -21.7580 H       829  TIP679      0.2052
 21399 H2          20.5880   -21.8160   -22.0520 H       829  TIP679      0.2052
 21400 OH2        -25.9710   -15.0930   -38.0800 O.3     830  TIP680     -0.4105
 21401 H1         -26.3500   -15.2060   -37.2080 H       830  TIP680      0.2052
 21402 H2         -25.9960   -14.1480   -38.2310 H       830  TIP680      0.2052
 21403 OH2         28.7950     2.9940   -41.0630 O.3     831  TIP681     -0.4105
 21404 H1          27.8860     2.9870   -40.7630 H       831  TIP681      0.2052
 21405 H2          29.1100     2.1050   -40.8960 H       831  TIP681      0.2052
 21406 OH2        -21.4180     7.2900    29.7250 O.3     832  TIP682     -0.4105
 21407 H1         -21.5980     6.3590    29.5920 H       832  TIP682      0.2052
 21408 H2         -20.8480     7.3170    30.4930 H       832  TIP682      0.2052
 21409 OH2         10.7050     8.6700    32.6650 O.3     833  TIP683     -0.4105
 21410 H1          11.2150     8.5030    31.8730 H       833  TIP683      0.2052
 21411 H2          10.6870     9.6240    32.7430 H       833  TIP683      0.2052
 21412 OH2          5.4920    15.2300   -19.8130 O.3     834  TIP684     -0.4105
 21413 H1           5.0970    14.9100   -19.0020 H       834  TIP684      0.2052
 21414 H2           6.4310    15.2540   -19.6290 H       834  TIP684      0.2052
 21415 OH2          7.5620   -14.2790    26.2760 O.3     835  TIP685     -0.4105
 21416 H1           8.2390   -14.4750    25.6270 H       835  TIP685      0.2052
 21417 H2           7.8790   -14.6850    27.0830 H       835  TIP685      0.2052
 21418 OH2          8.9810     7.9940   -36.7490 O.3     836  TIP686     -0.4105
 21419 H1           8.4930     8.8120   -36.8390 H       836  TIP686      0.2052
 21420 H2           8.3280     7.3550   -36.4640 H       836  TIP686      0.2052
 21421 OH2          3.7660    25.8270   -42.4260 O.3     837  TIP687     -0.4105
 21422 H1           3.4900    25.9780   -41.5220 H       837  TIP687      0.2052
 21423 H2           4.3970    26.5240   -42.6040 H       837  TIP687      0.2052
 21424 OH2        -20.8890    28.0380   -40.3680 O.3     838  TIP688     -0.4105
 21425 H1         -21.8390    28.0380   -40.2580 H       838  TIP688      0.2052
 21426 H2         -20.7220    28.7230   -41.0160 H       838  TIP688      0.2052
 21427 OH2         -9.7100    25.2110    28.7560 O.3     839  TIP689     -0.4105
 21428 H1          -9.4470    25.7190    27.9880 H       839  TIP689      0.2052
 21429 H2          -8.9690    25.2830    29.3570 H       839  TIP689      0.2052
 21430 OH2         -4.4100     2.0910   -28.1770 O.3     840  TIP690     -0.4105
 21431 H1          -4.9000     2.5560   -28.8540 H       840  TIP690      0.2052
 21432 H2          -3.6640     1.7090   -28.6400 H       840  TIP690      0.2052
 21433 OH2         -3.6020   -10.4670   -30.3880 O.3     841  TIP691     -0.4105
 21434 H1          -4.1460   -11.2540   -30.4160 H       841  TIP691      0.2052
 21435 H2          -2.9900   -10.5720   -31.1170 H       841  TIP691      0.2052
 21436 OH2          8.0690   -20.7190   -32.8000 O.3     842  TIP692     -0.4105
 21437 H1           7.4010   -21.3850   -32.6360 H       842  TIP692      0.2052
 21438 H2           7.6730   -20.1370   -33.4490 H       842  TIP692      0.2052
 21439 OH2        -13.1390    -0.2890   -17.2040 O.3     843  TIP693     -0.4105
 21440 H1         -14.0610    -0.3250   -16.9490 H       843  TIP693      0.2052
 21441 H2         -12.7460     0.3360   -16.5950 H       843  TIP693      0.2052
 21442 OH2         -2.1380    28.0100   -39.8850 O.3     844  TIP694     -0.4105
 21443 H1          -2.3690    28.9390   -39.8640 H       844  TIP694      0.2052
 21444 H2          -2.0330    27.8100   -40.8150 H       844  TIP694      0.2052
 21445 OH2        -26.5350    16.2990    34.8820 O.3     845  TIP695     -0.4105
 21446 H1         -26.7080    17.2380    34.8210 H       845  TIP695      0.2052
 21447 H2         -26.2220    16.0550    34.0100 H       845  TIP695      0.2052
 21448 OH2         24.3460    10.4460   -29.2190 O.3     846  TIP696     -0.4105
 21449 H1          25.0540    11.0600   -29.0290 H       846  TIP696      0.2052
 21450 H2          23.8510    10.8610   -29.9260 H       846  TIP696      0.2052
 21451 OH2        -28.5510   -13.2100   -55.5450 O.3     847  TIP697     -0.4105
 21452 H1         -27.8420   -13.5120   -56.1140 H       847  TIP697      0.2052
 21453 H2         -28.7540   -12.3300   -55.8610 H       847  TIP697      0.2052
 21454 OH2         -9.7060   -10.5630   -55.0630 O.3     848  TIP698     -0.4105
 21455 H1          -8.9590   -11.1420   -55.2100 H       848  TIP698      0.2052
 21456 H2         -10.0300   -10.8030   -54.1950 H       848  TIP698      0.2052
 21457 OH2         -8.0400   -17.8570    30.2090 O.3     849  TIP699     -0.4105
 21458 H1          -8.9330   -17.6270    30.4680 H       849  TIP699      0.2052
 21459 H2          -8.0660   -18.8050    30.0760 H       849  TIP699      0.2052
 21460 OH2        -23.1700     1.8480    53.5560 O.3     850  TIP700     -0.4105
 21461 H1         -22.7790     1.4010    54.3070 H       850  TIP700      0.2052
 21462 H2         -22.4300     2.0400    52.9790 H       850  TIP700      0.2052
 21463 OH2        -23.4400    23.1380    52.5900 O.3     851  TIP701     -0.4105
 21464 H1         -23.3540    22.2670    52.2010 H       851  TIP701      0.2052
 21465 H2         -23.7910    23.6820    51.8850 H       851  TIP701      0.2052
 21466 OH2         -9.3820     3.5750   -21.9170 O.3     852  TIP702     -0.4105
 21467 H1          -9.5720     4.4230   -21.5140 H       852  TIP702      0.2052
 21468 H2          -9.6540     2.9320   -21.2620 H       852  TIP702      0.2052
 21469 OH2          6.5770   -11.7870    26.0360 O.3     853  TIP703     -0.4105
 21470 H1           6.9220   -12.6650    26.1990 H       853  TIP703      0.2052
 21471 H2           5.7490   -11.9360    25.5790 H       853  TIP703      0.2052
 21472 OH2        -21.6650   -18.0160    40.4350 O.3     854  TIP704     -0.4105
 21473 H1         -22.5750   -18.0880    40.1460 H       854  TIP704      0.2052
 21474 H2         -21.2790   -18.8660    40.2240 H       854  TIP704      0.2052
 21475 OH2         -7.2370    12.2290    46.6240 O.3     855  TIP705     -0.4105
 21476 H1          -7.3860    11.3000    46.4440 H       855  TIP705      0.2052
 21477 H2          -7.5860    12.3620    47.5060 H       855  TIP705      0.2052
 21478 OH2          1.1820    29.8690   -40.1610 O.3     856  TIP706     -0.4105
 21479 H1           1.1150    29.2010   -39.4780 H       856  TIP706      0.2052
 21480 H2           1.2560    30.6950   -39.6830 H       856  TIP706      0.2052
 21481 OH2         16.2290    -3.2740   -52.2690 O.3     857  TIP707     -0.4105
 21482 H1          15.6630    -2.6060   -52.6560 H       857  TIP707      0.2052
 21483 H2          16.7520    -3.6000   -53.0010 H       857  TIP707      0.2052
 21484 OH2        -26.8230    12.3480   -19.3480 O.3     858  TIP708     -0.4105
 21485 H1         -27.4010    13.1040   -19.4520 H       858  TIP708      0.2052
 21486 H2         -26.9100    11.8640   -20.1690 H       858  TIP708      0.2052
 21487 OH2        -13.1920   -18.0780   -30.2330 O.3     859  TIP709     -0.4105
 21488 H1         -14.0490   -18.1550   -30.6520 H       859  TIP709      0.2052
 21489 H2         -13.1530   -17.1700   -29.9320 H       859  TIP709      0.2052
 21490 OH2        -11.6540    -5.4540    51.4810 O.3     860  TIP710     -0.4105
 21491 H1         -11.4680    -4.7250    50.8880 H       860  TIP710      0.2052
 21492 H2         -11.0340    -5.3390    52.2020 H       860  TIP710      0.2052
 21493 OH2         -5.9520    15.4650   -35.0400 O.3     861  TIP711     -0.4105
 21494 H1          -6.3530    16.2540   -35.4040 H       861  TIP711      0.2052
 21495 H2          -6.1020    14.7920   -35.7030 H       861  TIP711      0.2052
 21496 OH2        -12.8180   -25.4480   -47.4790 O.3     862  TIP712     -0.4105
 21497 H1         -11.9910   -25.5050   -47.9580 H       862  TIP712      0.2052
 21498 H2         -13.4480   -25.1300   -48.1240 H       862  TIP712      0.2052
 21499 OH2         18.9850    25.9600   -28.2320 O.3     863  TIP713     -0.4105
 21500 H1          18.8550    26.0280   -27.2870 H       863  TIP713      0.2052
 21501 H2          19.8330    26.3730   -28.3890 H       863  TIP713      0.2052
 21502 OH2         21.5010    25.0650   -51.6340 O.3     864  TIP714     -0.4105
 21503 H1          21.7300    24.7250   -52.4990 H       864  TIP714      0.2052
 21504 H2          22.3150    25.4440   -51.3020 H       864  TIP714      0.2052
 21505 OH2         12.8980     8.0060    43.9310 O.3     865  TIP715     -0.4105
 21506 H1          11.9710     8.1640    43.7520 H       865  TIP715      0.2052
 21507 H2          13.2590     8.8730    44.1140 H       865  TIP715      0.2052
 21508 OH2          8.0740   -20.1120   -22.0930 O.3     866  TIP716     -0.4105
 21509 H1           8.7670   -20.4740   -21.5410 H       866  TIP716      0.2052
 21510 H2           7.4290   -20.8160   -22.1600 H       866  TIP716      0.2052
 21511 OH2        -20.3780     0.2060   -26.1010 O.3     867  TIP717     -0.4105
 21512 H1         -20.8460     0.2440   -25.2670 H       867  TIP717      0.2052
 21513 H2         -19.6850    -0.4400   -25.9580 H       867  TIP717      0.2052
 21514 OH2        -19.3520     6.1210    43.0670 O.3     868  TIP718     -0.4105
 21515 H1         -18.8400     6.2310    42.2660 H       868  TIP718      0.2052
 21516 H2         -18.9300     5.3930    43.5240 H       868  TIP718      0.2052
 21517 OH2          4.3060     0.7920   -48.0540 O.3     869  TIP719     -0.4105
 21518 H1           5.2230     0.7890   -47.7780 H       869  TIP719      0.2052
 21519 H2           4.3400     0.9550   -48.9970 H       869  TIP719      0.2052
 21520 OH2        -27.4390   -27.8640   -43.6150 O.3     870  TIP720     -0.4105
 21521 H1         -27.7670   -27.5890   -42.7590 H       870  TIP720      0.2052
 21522 H2         -27.0430   -27.0750   -43.9850 H       870  TIP720      0.2052
 21523 OH2         23.8840     6.9930    42.7430 O.3     871  TIP721     -0.4105
 21524 H1          24.0360     6.1200    43.1040 H       871  TIP721      0.2052
 21525 H2          24.7600     7.3530    42.6070 H       871  TIP721      0.2052
 21526 OH2        -31.3350     4.5940    45.3510 O.3     872  TIP722     -0.4105
 21527 H1         -32.1890     4.3620    45.7160 H       872  TIP722      0.2052
 21528 H2         -31.5280     4.9060    44.4670 H       872  TIP722      0.2052
 21529 OH2         -0.0020   -16.4590   -32.1360 O.3     873  TIP723     -0.4105
 21530 H1          -0.2360   -16.8010   -31.2730 H       873  TIP723      0.2052
 21531 H2          -0.7310   -15.8850   -32.3710 H       873  TIP723      0.2052
 21532 OH2         18.2860    10.0740   -43.1580 O.3     874  TIP724     -0.4105
 21533 H1          19.0720     9.9740   -42.6200 H       874  TIP724      0.2052
 21534 H2          17.5680    10.1220   -42.5270 H       874  TIP724      0.2052
 21535 OH2        -12.8610    23.7690   -24.4410 O.3     875  TIP725     -0.4105
 21536 H1         -12.9860    23.5400   -23.5200 H       875  TIP725      0.2052
 21537 H2         -12.1680    23.1810   -24.7430 H       875  TIP725      0.2052
 21538 OH2         20.8350    30.9120    46.7760 O.3     876  TIP726     -0.4105
 21539 H1          20.4980    31.7660    47.0490 H       876  TIP726      0.2052
 21540 H2          21.4710    31.1130    46.0900 H       876  TIP726      0.2052
 21541 OH2        -18.2170    -5.6880   -34.1420 O.3     877  TIP727     -0.4105
 21542 H1         -18.4490    -5.1010   -33.4220 H       877  TIP727      0.2052
 21543 H2         -18.1410    -5.1130   -34.9040 H       877  TIP727      0.2052
 21544 OH2        -30.7130    32.6980    22.8930 O.3     878  TIP728     -0.4105
 21545 H1         -29.8420    32.3990    22.6310 H       878  TIP728      0.2052
 21546 H2         -30.9990    32.0610    23.5470 H       878  TIP728      0.2052
 21547 OH2         29.9430    20.3630    40.6380 O.3     879  TIP729     -0.4105
 21548 H1          29.9010    19.6830    41.3100 H       879  TIP729      0.2052
 21549 H2          29.4790    21.1070    41.0220 H       879  TIP729      0.2052
 21550 OH2        -15.5310    22.2230    28.3870 O.3     880  TIP730     -0.4105
 21551 H1         -14.7620    22.7920    28.4250 H       880  TIP730      0.2052
 21552 H2         -15.6550    21.9260    29.2880 H       880  TIP730      0.2052
 21553 OH2        -20.9380   -13.2660    40.5140 O.3     881  TIP731     -0.4105
 21554 H1         -20.3960   -14.0370    40.3430 H       881  TIP731      0.2052
 21555 H2         -21.6100   -13.2890    39.8330 H       881  TIP731      0.2052
 21556 OH2        -31.1540   -24.1230    54.7680 O.3     882  TIP732     -0.4105
 21557 H1         -30.6840   -24.6000    54.0840 H       882  TIP732      0.2052
 21558 H2         -32.0160   -24.5380    54.8010 H       882  TIP732      0.2052
 21559 OH2         -9.9590    -0.3310    42.0810 O.3     883  TIP733     -0.4105
 21560 H1          -9.1650    -0.6540    41.6550 H       883  TIP733      0.2052
 21561 H2         -10.6310    -0.3770    41.4010 H       883  TIP733      0.2052
 21562 OH2         16.9270   -26.8040    41.1220 O.3     884  TIP734     -0.4105
 21563 H1          16.6490   -26.6210    42.0190 H       884  TIP734      0.2052
 21564 H2          17.8790   -26.8840    41.1770 H       884  TIP734      0.2052
 21565 OH2         26.7910   -32.0990    24.0890 O.3     885  TIP735     -0.4105
 21566 H1          26.9530   -33.0410    24.1330 H       885  TIP735      0.2052
 21567 H2          26.0410   -31.9560    24.6660 H       885  TIP735      0.2052
 21568 OH2        -23.2200    -4.4630    39.8940 O.3     886  TIP736     -0.4105
 21569 H1         -22.3510    -4.4220    40.2930 H       886  TIP736      0.2052
 21570 H2         -23.4840    -5.3780    39.9870 H       886  TIP736      0.2052
 21571 OH2        -12.9520   -18.2470    39.8690 O.3     887  TIP737     -0.4105
 21572 H1         -13.1550   -18.2760    40.8040 H       887  TIP737      0.2052
 21573 H2         -12.0620   -17.8970    39.8280 H       887  TIP737      0.2052
 21574 OH2         14.8190    -9.4590    -7.9860 O.3     888  TIP738     -0.4105
 21575 H1          13.8760    -9.5600    -8.1150 H       888  TIP738      0.2052
 21576 H2          14.8970    -8.8150    -7.2820 H       888  TIP738      0.2052
 21577 OH2         -4.8820    28.3170   -45.0620 O.3     889  TIP739     -0.4105
 21578 H1          -4.1940    28.3040   -45.7270 H       889  TIP739      0.2052
 21579 H2          -5.1460    29.2350   -45.0070 H       889  TIP739      0.2052
 21580 OH2          7.1680     4.1930   -47.7730 O.3     890  TIP740     -0.4105
 21581 H1           7.7210     4.5450   -48.4700 H       890  TIP740      0.2052
 21582 H2           7.7360     3.5830   -47.3010 H       890  TIP740      0.2052
 21583 OH2          0.5270     1.9550   -17.1940 O.3     891  TIP741     -0.4105
 21584 H1           0.7750     1.0330   -17.2570 H       891  TIP741      0.2052
 21585 H2           0.9570     2.2650   -16.3970 H       891  TIP741      0.2052
 21586 OH2        -29.9070   -19.5290    38.3410 O.3     892  TIP742     -0.4105
 21587 H1         -29.4800   -19.8890    37.5630 H       892  TIP742      0.2052
 21588 H2         -29.8920   -18.5820    38.2060 H       892  TIP742      0.2052
 21589 OH2          9.2540    -5.6050    34.6120 O.3     893  TIP743     -0.4105
 21590 H1           9.6210    -5.7040    35.4900 H       893  TIP743      0.2052
 21591 H2           9.8740    -6.0560    34.0400 H       893  TIP743      0.2052
 21592 OH2        -22.6680   -32.9980    54.5330 O.3     894  TIP744     -0.4105
 21593 H1         -23.0040   -33.2390    55.3960 H       894  TIP744      0.2052
 21594 H2         -22.8650   -32.0650    54.4510 H       894  TIP744      0.2052
 21595 OH2          5.9070    12.0160   -53.6960 O.3     895  TIP745     -0.4105
 21596 H1           5.7940    12.3250   -54.5950 H       895  TIP745      0.2052
 21597 H2           5.7170    12.7810   -53.1540 H       895  TIP745      0.2052
 21598 OH2         18.1130     2.6010   -52.0570 O.3     896  TIP746     -0.4105
 21599 H1          17.7390     3.4340   -52.3440 H       896  TIP746      0.2052
 21600 H2          18.3080     2.1330   -52.8690 H       896  TIP746      0.2052
 21601 OH2         -7.4950   -31.4790    21.5920 O.3     897  TIP747     -0.4105
 21602 H1          -7.0570   -30.6600    21.3610 H       897  TIP747      0.2052
 21603 H2          -7.0300   -32.1490    21.0910 H       897  TIP747      0.2052
 21604 OH2        -24.2630    -9.6510    40.3510 O.3     898  TIP748     -0.4105
 21605 H1         -25.0010    -9.8090    39.7630 H       898  TIP748      0.2052
 21606 H2         -24.6660    -9.4980    41.2060 H       898  TIP748      0.2052
 21607 OH2        -30.9740   -15.9140    26.6510 O.3     899  TIP749     -0.4105
 21608 H1         -30.5720   -16.7560    26.8660 H       899  TIP749      0.2052
 21609 H2         -31.6930   -16.1360    26.0590 H       899  TIP749      0.2052
 21610 OH2        -32.9180    28.0870    37.0000 O.3     900  TIP750     -0.4105
 21611 H1         -33.5410    28.1030    37.7270 H       900  TIP750      0.2052
 21612 H2         -32.5590    27.2000    37.0110 H       900  TIP750      0.2052
 21613 OH2          0.4070     9.7420    38.6330 O.3     901  TIP751     -0.4105
 21614 H1           0.8260    10.4540    39.1170 H       901  TIP751      0.2052
 21615 H2           0.7220     9.8430    37.7350 H       901  TIP751      0.2052
 21616 OH2        -14.3770    -4.0900    37.6960 O.3     902  TIP752     -0.4105
 21617 H1         -15.0490    -3.4340    37.8810 H       902  TIP752      0.2052
 21618 H2         -14.7390    -4.9070    38.0390 H       902  TIP752      0.2052
 21619 OH2         -6.2100    30.5620    50.2120 O.3     903  TIP753     -0.4105
 21620 H1          -5.8120    30.5330    51.0820 H       903  TIP753      0.2052
 21621 H2          -5.7470    29.8880    49.7140 H       903  TIP753      0.2052
 21622 OH2          8.5680    20.3080   -50.0070 O.3     904  TIP754     -0.4105
 21623 H1           7.8090    20.1960   -49.4340 H       904  TIP754      0.2052
 21624 H2           8.7630    19.4250   -50.3210 H       904  TIP754      0.2052
 21625 OH2          9.6540     3.4650    37.0840 O.3     905  TIP755     -0.4105
 21626 H1           9.5270     4.3460    37.4380 H       905  TIP755      0.2052
 21627 H2           8.9610     3.3660    36.4320 H       905  TIP755      0.2052
 21628 OH2         25.2720   -14.3040   -21.8740 O.3     906  TIP756     -0.4105
 21629 H1          26.1530   -13.9310   -21.8300 H       906  TIP756      0.2052
 21630 H2          24.7880   -13.7100   -22.4470 H       906  TIP756      0.2052
 21631 OH2         24.6420    -1.0540   -37.3100 O.3     907  TIP757     -0.4105
 21632 H1          24.9830    -1.7580   -37.8630 H       907  TIP757      0.2052
 21633 H2          25.4050    -0.5100   -37.1160 H       907  TIP757      0.2052
 21634 OH2         15.7770   -16.6670   -26.4740 O.3     908  TIP758     -0.4105
 21635 H1          16.3050   -16.3130   -27.1890 H       908  TIP758      0.2052
 21636 H2          16.4160   -16.9330   -25.8130 H       908  TIP758      0.2052
 21637 OH2         -5.5700    10.6180   -29.7580 O.3     909  TIP759     -0.4105
 21638 H1          -5.7650    10.5590   -28.8220 H       909  TIP759      0.2052
 21639 H2          -6.4230    10.7360   -30.1740 H       909  TIP759      0.2052
 21640 OH2        -12.2050    25.6920    47.4220 O.3     910  TIP760     -0.4105
 21641 H1         -12.4580    26.6010    47.2580 H       910  TIP760      0.2052
 21642 H2         -11.7220    25.7240    48.2480 H       910  TIP760      0.2052
 21643 OH2        -10.6050     4.5120    37.4280 O.3     911  TIP761     -0.4105
 21644 H1         -10.7330     4.4650    36.4800 H       911  TIP761      0.2052
 21645 H2         -10.7570     3.6180    37.7350 H       911  TIP761      0.2052
 21646 OH2         10.7640    22.0100   -27.7030 O.3     912  TIP762     -0.4105
 21647 H1          10.6020    22.4560   -28.5340 H       912  TIP762      0.2052
 21648 H2           9.9070    21.6730   -27.4410 H       912  TIP762      0.2052
 21649 OH2        -28.4640    23.1790   -54.2390 O.3     913  TIP763     -0.4105
 21650 H1         -27.6240    22.9520   -53.8400 H       913  TIP763      0.2052
 21651 H2         -28.2680    23.9250   -54.8050 H       913  TIP763      0.2052
 21652 OH2          0.0840    -7.2960    36.5560 O.3     914  TIP764     -0.4105
 21653 H1          -0.3450    -7.7100    35.8070 H       914  TIP764      0.2052
 21654 H2          -0.3600    -7.6630    37.3200 H       914  TIP764      0.2052
 21655 OH2         10.5310    17.2060    28.3380 O.3     915  TIP765     -0.4105
 21656 H1          10.3030    18.1090    28.5600 H       915  TIP765      0.2052
 21657 H2           9.6910    16.7460    28.3160 H       915  TIP765      0.2052
 21658 OH2          0.2760    19.6210   -34.5290 O.3     916  TIP766     -0.4105
 21659 H1          -0.5220    20.1140   -34.7180 H       916  TIP766      0.2052
 21660 H2           0.5270    19.8980   -33.6480 H       916  TIP766      0.2052
 21661 OH2        -28.1090    26.4750    41.9850 O.3     917  TIP767     -0.4105
 21662 H1         -27.5520    26.7350    42.7190 H       917  TIP767      0.2052
 21663 H2         -27.5000    26.1230    41.3350 H       917  TIP767      0.2052
 21664 OH2         21.7330   -15.2760   -40.9520 O.3     918  TIP768     -0.4105
 21665 H1          22.2640   -16.0710   -40.9250 H       918  TIP768      0.2052
 21666 H2          22.0580   -14.7450   -40.2260 H       918  TIP768      0.2052
 21667 OH2         -8.2860     9.8550    43.2400 O.3     919  TIP769     -0.4105
 21668 H1          -8.9510     9.6690    42.5780 H       919  TIP769      0.2052
 21669 H2          -7.8360     9.0210    43.3700 H       919  TIP769      0.2052
 21670 OH2         30.0190     0.8890   -39.3310 O.3     920  TIP770     -0.4105
 21671 H1          30.9010     0.9400   -38.9630 H       920  TIP770      0.2052
 21672 H2          29.4750     1.3850   -38.7190 H       920  TIP770      0.2052
 21673 OH2        -17.7060    -1.4330    47.3050 O.3     921  TIP771     -0.4105
 21674 H1         -17.1760    -2.0630    47.7930 H       921  TIP771      0.2052
 21675 H2         -17.2830    -1.3760    46.4480 H       921  TIP771      0.2052
 21676 OH2        -26.1260     6.0610   -43.8690 O.3     922  TIP772     -0.4105
 21677 H1         -25.5250     6.4580   -44.4980 H       922  TIP772      0.2052
 21678 H2         -26.7510     5.5750   -44.4070 H       922  TIP772      0.2052
 21679 OH2         32.1590    -3.0230   -34.9150 O.3     923  TIP773     -0.4105
 21680 H1          32.2950    -2.4620   -34.1520 H       923  TIP773      0.2052
 21681 H2          31.2170    -3.1970   -34.9200 H       923  TIP773      0.2052
 21682 OH2          4.6190   -24.1700    23.0230 O.3     924  TIP774     -0.4105
 21683 H1           4.2410   -23.6890    23.7590 H       924  TIP774      0.2052
 21684 H2           4.4990   -23.5910    22.2710 H       924  TIP774      0.2052
 21685 OH2        -26.1310     9.6860    29.7230 O.3     925  TIP775     -0.4105
 21686 H1         -25.4000     9.8980    29.1420 H       925  TIP775      0.2052
 21687 H2         -25.8860     8.8510    30.1220 H       925  TIP775      0.2052
 21688 OH2         21.1610    15.0580    54.4430 O.3     926  TIP776     -0.4105
 21689 H1          21.6570    14.2500    54.5710 H       926  TIP776      0.2052
 21690 H2          21.7460    15.6210    53.9360 H       926  TIP776      0.2052
 21691 OH2         -1.9750   -26.0310   -25.8770 O.3     927  TIP777     -0.4105
 21692 H1          -2.1660   -26.9660   -25.8030 H       927  TIP777      0.2052
 21693 H2          -1.0200   -25.9770   -25.8390 H       927  TIP777      0.2052
 21694 OH2        -10.1220    -1.5460   -27.4480 O.3     928  TIP778     -0.4105
 21695 H1          -9.5860    -2.3390   -27.4150 H       928  TIP778      0.2052
 21696 H2         -10.2490    -1.3820   -28.3830 H       928  TIP778      0.2052
 21697 OH2         -5.2590   -19.8060    48.2650 O.3     929  TIP779     -0.4105
 21698 H1          -4.7040   -20.1860    48.9470 H       929  TIP779      0.2052
 21699 H2          -5.0490   -18.8720    48.2770 H       929  TIP779      0.2052
 21700 OH2          5.1750    15.1500   -27.9560 O.3     930  TIP780     -0.4105
 21701 H1           5.0670    15.2490   -28.9020 H       930  TIP780      0.2052
 21702 H2           4.4630    14.5660   -27.6930 H       930  TIP780      0.2052
 21703 OH2        -30.8390    28.3420   -32.4290 O.3     931  TIP781     -0.4105
 21704 H1         -30.6160    28.9880   -33.0990 H       931  TIP781      0.2052
 21705 H2         -31.5720    28.7320   -31.9540 H       931  TIP781      0.2052
 21706 OH2          8.0200    29.1020   -32.4770 O.3     932  TIP782     -0.4105
 21707 H1           7.2100    28.5960   -32.4140 H       932  TIP782      0.2052
 21708 H2           8.4920    28.9000   -31.6690 H       932  TIP782      0.2052
 21709 OH2        -22.4490    17.9190    34.3620 O.3     933  TIP783     -0.4105
 21710 H1         -22.8480    17.8990    35.2330 H       933  TIP783      0.2052
 21711 H2         -23.1560    17.6650    33.7690 H       933  TIP783      0.2052
 21712 OH2        -15.7450   -17.3040   -31.2770 O.3     934  TIP784     -0.4105
 21713 H1         -16.6510   -17.6020   -31.1950 H       934  TIP784      0.2052
 21714 H2         -15.6160   -17.1860   -32.2180 H       934  TIP784      0.2052
 21715 OH2         -5.2410    14.8080    51.1150 O.3     935  TIP785     -0.4105
 21716 H1          -4.5890    14.1460    50.8840 H       935  TIP785      0.2052
 21717 H2          -5.1530    15.4780    50.4370 H       935  TIP785      0.2052
 21718 OH2         22.5840    -6.7300    32.3560 O.3     936  TIP786     -0.4105
 21719 H1          22.6860    -5.7990    32.5530 H       936  TIP786      0.2052
 21720 H2          23.3580    -7.1430    32.7400 H       936  TIP786      0.2052
 21721 OH2         12.9810    32.2260    27.5180 O.3     937  TIP787     -0.4105
 21722 H1          13.5680    32.6440    26.8880 H       937  TIP787      0.2052
 21723 H2          13.3640    32.4260    28.3730 H       937  TIP787      0.2052
 21724 OH2         29.8780     6.8560   -20.9310 O.3     938  TIP788     -0.4105
 21725 H1          30.2170     7.1300   -20.0790 H       938  TIP788      0.2052
 21726 H2          28.9890     7.2090   -20.9600 H       938  TIP788      0.2052
 21727 OH2         17.8930   -28.9490   -48.8040 O.3     939  TIP789     -0.4105
 21728 H1          18.7580   -28.6400   -49.0740 H       939  TIP789      0.2052
 21729 H2          17.6070   -28.3160   -48.1450 H       939  TIP789      0.2052
 21730 OH2        -22.3230    -0.5590    35.6860 O.3     940  TIP790     -0.4105
 21731 H1         -21.5310    -0.5520    35.1480 H       940  TIP790      0.2052
 21732 H2         -22.7130    -1.4190    35.5280 H       940  TIP790      0.2052
 21733 OH2          1.8770   -21.1830   -37.1680 O.3     941  TIP791     -0.4105
 21734 H1           1.2510   -20.4620   -37.2340 H       941  TIP791      0.2052
 21735 H2           1.3530   -21.9700   -37.3170 H       941  TIP791      0.2052
 21736 OH2         10.6430   -32.6380   -26.2710 O.3     942  TIP792     -0.4105
 21737 H1          11.4590   -32.1390   -26.3220 H       942  TIP792      0.2052
 21738 H2          10.1700   -32.2490   -25.5350 H       942  TIP792      0.2052
 21739 OH2          1.8530   -12.6260   -27.5740 O.3     943  TIP793     -0.4105
 21740 H1           1.6020   -12.4350   -28.4780 H       943  TIP793      0.2052
 21741 H2           2.2980   -13.4720   -27.6210 H       943  TIP793      0.2052
 21742 OH2         26.8270    -5.6550    21.4770 O.3     944  TIP794     -0.4105
 21743 H1          26.3030    -6.1140    20.8220 H       944  TIP794      0.2052
 21744 H2          26.1840    -5.2560    22.0630 H       944  TIP794      0.2052
 21745 OH2          1.2120    -5.1360    48.9150 O.3     945  TIP795     -0.4105
 21746 H1           0.5470    -4.5960    48.4880 H       945  TIP795      0.2052
 21747 H2           1.0580    -6.0190    48.5770 H       945  TIP795      0.2052
 21748 OH2          6.0980    -2.5610   -23.4440 O.3     946  TIP796     -0.4105
 21749 H1           6.2400    -2.2870   -24.3500 H       946  TIP796      0.2052
 21750 H2           5.7350    -1.7860   -23.0140 H       946  TIP796      0.2052
 21751 OH2         25.7560    12.8300   -29.6150 O.3     947  TIP797     -0.4105
 21752 H1          26.1210    13.7070   -29.7350 H       947  TIP797      0.2052
 21753 H2          26.3020    12.2650   -30.1610 H       947  TIP797      0.2052
 21754 OH2          2.5470    23.6660   -51.6740 O.3     948  TIP798     -0.4105
 21755 H1           2.9290    23.0360   -51.0630 H       948  TIP798      0.2052
 21756 H2           2.6740    24.5170   -51.2540 H       948  TIP798      0.2052
 21757 OH2         -2.0960    25.8410    39.0760 O.3     949  TIP799     -0.4105
 21758 H1          -2.8730    25.4130    38.7170 H       949  TIP799      0.2052
 21759 H2          -1.8010    25.2570    39.7750 H       949  TIP799      0.2052
 21760 OH2         16.5650    30.3920   -30.3630 O.3     950  TIP800     -0.4105
 21761 H1          17.4950    30.4000   -30.5900 H       950  TIP800      0.2052
 21762 H2          16.1200    30.1800   -31.1840 H       950  TIP800      0.2052
 21763 OH2        -10.1980    32.0290   -38.6210 O.3     951  TIP801     -0.4105
 21764 H1         -11.1270    32.0150   -38.8500 H       951  TIP801      0.2052
 21765 H2          -9.8580    32.8160   -39.0460 H       951  TIP801      0.2052
 21766 OH2          6.3340   -16.0920   -47.8350 O.3     952  TIP802     -0.4105
 21767 H1           7.1160   -15.7270   -47.4220 H       952  TIP802      0.2052
 21768 H2           6.2770   -16.9860   -47.4960 H       952  TIP802      0.2052
 21769 OH2         -5.1340     3.3440   -30.4980 O.3     953  TIP803     -0.4105
 21770 H1          -5.9520     3.7730   -30.7480 H       953  TIP803      0.2052
 21771 H2          -4.8780     2.8470   -31.2750 H       953  TIP803      0.2052
 21772 OH2         29.2260    25.7300   -36.1180 O.3     954  TIP804     -0.4105
 21773 H1          28.6070    26.0740   -36.7620 H       954  TIP804      0.2052
 21774 H2          29.6800    26.5030   -35.7840 H       954  TIP804      0.2052
 21775 OH2         -7.1510    32.5640   -46.7220 O.3     955  TIP805     -0.4105
 21776 H1          -7.4290    33.4620   -46.5400 H       955  TIP805      0.2052
 21777 H2          -6.9480    32.1970   -45.8610 H       955  TIP805      0.2052
 21778 OH2        -11.6730   -18.3600   -49.6010 O.3     956  TIP806     -0.4105
 21779 H1         -11.7990   -19.2190   -49.1980 H       956  TIP806      0.2052
 21780 H2         -12.5040   -17.9050   -49.4620 H       956  TIP806      0.2052
 21781 OH2        -26.2600   -18.7770    49.3120 O.3     957  TIP807     -0.4105
 21782 H1         -25.6660   -18.1010    49.6370 H       957  TIP807      0.2052
 21783 H2         -25.7900   -19.1770    48.5800 H       957  TIP807      0.2052
 21784 OH2        -22.1640   -20.0270   -27.1100 O.3     958  TIP808     -0.4105
 21785 H1         -22.2900   -19.9440   -28.0550 H       958  TIP808      0.2052
 21786 H2         -21.2350   -19.8410   -26.9750 H       958  TIP808      0.2052
 21787 OH2         26.2350     6.6310    39.4980 O.3     959  TIP809     -0.4105
 21788 H1          26.1060     6.7110    38.5530 H       959  TIP809      0.2052
 21789 H2          25.4530     6.1740    39.8080 H       959  TIP809      0.2052
 21790 OH2        -22.7080   -11.9450    38.7050 O.3     960  TIP810     -0.4105
 21791 H1         -22.7350   -11.4550    37.8840 H       960  TIP810      0.2052
 21792 H2         -23.6180   -12.1920    38.8670 H       960  TIP810      0.2052
 21793 OH2          4.6050   -27.3680   -47.5490 O.3     961  TIP811     -0.4105
 21794 H1           4.3000   -27.5930   -46.6700 H       961  TIP811      0.2052
 21795 H2           3.9400   -27.7310   -48.1340 H       961  TIP811      0.2052
 21796 OH2         28.7340    13.5890    46.6380 O.3     962  TIP812     -0.4105
 21797 H1          28.1650    14.3410    46.8000 H       962  TIP812      0.2052
 21798 H2          28.3470    12.8800    47.1520 H       962  TIP812      0.2052
 21799 OH2        -15.4230    22.1980    17.3490 O.3     963  TIP813     -0.4105
 21800 H1         -15.6470    23.1250    17.4290 H       963  TIP813      0.2052
 21801 H2         -16.2400    21.7750    17.0860 H       963  TIP813      0.2052
 21802 OH2         -3.9100   -10.7400    46.3900 O.3     964  TIP814     -0.4105
 21803 H1          -3.1990   -10.9370    47.0000 H       964  TIP814      0.2052
 21804 H2          -4.5620   -11.4210    46.5540 H       964  TIP814      0.2052
 21805 OH2          4.7210    26.5240    37.1170 O.3     965  TIP815     -0.4105
 21806 H1           5.0780    25.6380    37.1870 H       965  TIP815      0.2052
 21807 H2           4.0990    26.5890    37.8420 H       965  TIP815      0.2052
 21808 OH2        -13.6530    18.9470    21.8210 O.3     966  TIP816     -0.4105
 21809 H1         -14.4370    18.3980    21.8210 H       966  TIP816      0.2052
 21810 H2         -13.8780    19.6880    22.3830 H       966  TIP816      0.2052
 21811 OH2          1.4910   -24.6760   -26.9710 O.3     967  TIP817     -0.4105
 21812 H1           2.3480   -25.0220   -26.7200 H       967  TIP817      0.2052
 21813 H2           1.4800   -23.7850   -26.6210 H       967  TIP817      0.2052
 21814 OH2        -10.5590    -1.9880    32.6110 O.3     968  TIP818     -0.4105
 21815 H1         -11.3550    -1.8510    32.0970 H       968  TIP818      0.2052
 21816 H2          -9.8460    -1.7750    32.0090 H       968  TIP818      0.2052
 21817 OH2          6.7140   -18.4950    25.1320 O.3     969  TIP819     -0.4105
 21818 H1           6.3270   -19.3280    25.4010 H       969  TIP819      0.2052
 21819 H2           7.3870   -18.7380    24.4960 H       969  TIP819      0.2052
 21820 OH2         24.4670    14.0100   -32.3070 O.3     970  TIP820     -0.4105
 21821 H1          23.7490    13.7650   -31.7230 H       970  TIP820      0.2052
 21822 H2          24.7920    13.1790   -32.6510 H       970  TIP820      0.2052
 21823 OH2         25.9220     5.7570   -52.4950 O.3     971  TIP821     -0.4105
 21824 H1          24.9790     5.6560   -52.6250 H       971  TIP821      0.2052
 21825 H2          26.0750     6.6980   -52.5770 H       971  TIP821      0.2052
 21826 OH2         -3.5380    -2.2520   -22.2350 O.3     972  TIP822     -0.4105
 21827 H1          -2.7990    -2.8610   -22.2210 H       972  TIP822      0.2052
 21828 H2          -3.2000    -1.4560   -21.8250 H       972  TIP822      0.2052
 21829 OH2         -3.7020    28.8220   -36.4070 O.3     973  TIP823     -0.4105
 21830 H1          -2.7820    29.0040   -36.2170 H       973  TIP823      0.2052
 21831 H2          -4.1480    28.9380   -35.5680 H       973  TIP823      0.2052
 21832 OH2        -13.2080   -21.4360   -35.3740 O.3     974  TIP824     -0.4105
 21833 H1         -14.1620   -21.5060   -35.3910 H       974  TIP824      0.2052
 21834 H2         -13.0380   -20.5000   -35.2630 H       974  TIP824      0.2052
 21835 OH2         16.6460   -23.4080   -27.9780 O.3     975  TIP825     -0.4105
 21836 H1          16.4040   -23.0100   -28.8140 H       975  TIP825      0.2052
 21837 H2          15.8500   -23.3560   -27.4490 H       975  TIP825      0.2052
 21838 OH2         26.5260    -9.5880    21.3600 O.3     976  TIP826     -0.4105
 21839 H1          25.6450    -9.2500    21.1970 H       976  TIP826      0.2052
 21840 H2          27.0420    -8.8130    21.5860 H       976  TIP826      0.2052
 21841 OH2         15.6610   -16.3740    49.1070 O.3     977  TIP827     -0.4105
 21842 H1          14.8720   -16.8260    48.8100 H       977  TIP827      0.2052
 21843 H2          16.1990   -17.0620    49.4990 H       977  TIP827      0.2052
 21844 OH2        -14.6060     1.4590   -46.5720 O.3     978  TIP828     -0.4105
 21845 H1         -14.3420     1.3710   -47.4880 H       978  TIP828      0.2052
 21846 H2         -13.8360     1.8200   -46.1330 H       978  TIP828      0.2052
 21847 OH2        -12.3660   -20.6140   -40.1690 O.3     979  TIP829     -0.4105
 21848 H1         -12.1250   -20.2970   -41.0390 H       979  TIP829      0.2052
 21849 H2         -12.2370   -21.5610   -40.2140 H       979  TIP829      0.2052
 21850 OH2         14.3460    28.9600    17.6810 O.3     980  TIP830     -0.4105
 21851 H1          14.2910    29.8930    17.8870 H       980  TIP830      0.2052
 21852 H2          13.4490    28.7080    17.4640 H       980  TIP830      0.2052
 21853 OH2         -4.5690   -12.2390    33.4600 O.3     981  TIP831     -0.4105
 21854 H1          -4.6980   -13.1870    33.5050 H       981  TIP831      0.2052
 21855 H2          -4.3830   -11.9790    34.3620 H       981  TIP831      0.2052
 21856 OH2         16.4230     6.2270    36.2620 O.3     982  TIP832     -0.4105
 21857 H1          15.5570     6.6080    36.1170 H       982  TIP832      0.2052
 21858 H2          16.6230     5.7670    35.4470 H       982  TIP832      0.2052
 21859 OH2         -0.3550   -11.6270   -22.0780 O.3     983  TIP833     -0.4105
 21860 H1          -0.5910   -12.5510   -22.0010 H       983  TIP833      0.2052
 21861 H2           0.0700   -11.4160   -21.2470 H       983  TIP833      0.2052
 21862 OH2          0.2780   -11.8460    46.6040 O.3     984  TIP834     -0.4105
 21863 H1          -0.1720   -12.1820    45.8290 H       984  TIP834      0.2052
 21864 H2           1.2080   -11.8950    46.3830 H       984  TIP834      0.2052
 21865 OH2        -26.3730    32.4430   -36.7910 O.3     985  TIP835     -0.4105
 21866 H1         -25.8110    31.6800   -36.9280 H       985  TIP835      0.2052
 21867 H2         -26.0230    32.8610   -36.0050 H       985  TIP835      0.2052
 21868 OH2        -18.9830    -4.3470   -44.1620 O.3     986  TIP836     -0.4105
 21869 H1         -18.8560    -3.4000   -44.2210 H       986  TIP836      0.2052
 21870 H2         -19.0180    -4.6420   -45.0710 H       986  TIP836      0.2052
 21871 OH2        -23.5150   -15.5090    54.7950 O.3     987  TIP837     -0.4105
 21872 H1         -23.1160   -14.8010    55.3010 H       987  TIP837      0.2052
 21873 H2         -24.1990   -15.8570    55.3670 H       987  TIP837      0.2052
 21874 OH2         22.4320    -4.0400    35.7840 O.3     988  TIP838     -0.4105
 21875 H1          22.2850    -3.2400    35.2790 H       988  TIP838      0.2052
 21876 H2          22.8300    -3.7390    36.6000 H       988  TIP838      0.2052
 21877 OH2         27.6430    -2.5860   -41.5700 O.3     989  TIP839     -0.4105
 21878 H1          28.1250    -2.1540   -40.8640 H       989  TIP839      0.2052
 21879 H2          27.5890    -3.5020   -41.2980 H       989  TIP839      0.2052
 21880 OH2          8.3500   -29.9730   -28.4120 O.3     990  TIP840     -0.4105
 21881 H1           8.7110   -29.1410   -28.1080 H       990  TIP840      0.2052
 21882 H2           7.4030   -29.8780   -28.3060 H       990  TIP840      0.2052
 21883 OH2         15.3370    23.8230    25.1590 O.3     991  TIP841     -0.4105
 21884 H1          14.9080    23.2100    24.5620 H       991  TIP841      0.2052
 21885 H2          16.1600    23.3930    25.3940 H       991  TIP841      0.2052
 21886 OH2        -13.0830   -15.5370   -28.7010 O.3     992  TIP842     -0.4105
 21887 H1         -12.3670   -15.1850   -28.1720 H       992  TIP842      0.2052
 21888 H2         -13.7240   -15.8480   -28.0620 H       992  TIP842      0.2052
 21889 OH2          4.5150    14.2770   -22.1180 O.3     993  TIP843     -0.4105
 21890 H1           4.9580    14.9990   -22.5640 H       993  TIP843      0.2052
 21891 H2           4.7110    14.4110   -21.1910 H       993  TIP843      0.2052
 21892 OH2          4.5420    -7.9230    31.5780 O.3     994  TIP844     -0.4105
 21893 H1           5.4040    -8.2470    31.3190 H       994  TIP844      0.2052
 21894 H2           4.7090    -7.3880    32.3530 H       994  TIP844      0.2052
 21895 OH2          3.3070    10.9110   -48.3620 O.3     995  TIP845     -0.4105
 21896 H1           3.9860    10.4690   -47.8520 H       995  TIP845      0.2052
 21897 H2           3.2500    11.7860   -47.9790 H       995  TIP845      0.2052
 21898 OH2         -8.8150    -4.8940   -30.7760 O.3     996  TIP846     -0.4105
 21899 H1          -7.8880    -4.9890   -30.9940 H       996  TIP846      0.2052
 21900 H2          -8.8230    -4.3250   -30.0070 H       996  TIP846      0.2052
 21901 OH2          7.1830     9.2650    22.0360 O.3     997  TIP847     -0.4105
 21902 H1           6.5940     9.9070    21.6400 H       997  TIP847      0.2052
 21903 H2           7.9730     9.2980    21.4970 H       997  TIP847      0.2052
 21904 OH2          3.3990   -12.4320    46.9290 O.3     998  TIP848     -0.4105
 21905 H1           3.2720   -12.7650    47.8170 H       998  TIP848      0.2052
 21906 H2           3.5980   -13.2090    46.4070 H       998  TIP848      0.2052
 21907 OH2          9.6230    26.0930   -54.9420 O.3     999  TIP849     -0.4105
 21908 H1           9.7390    25.4620   -55.6530 H       999  TIP849      0.2052
 21909 H2          10.5140    26.3160   -54.6720 H       999  TIP849      0.2052
 21910 OH2         -0.1990     4.8320   -23.6620 O.3    1000  TIP850     -0.4105
 21911 H1           0.6570     4.5680   -23.3250 H      1000  TIP850      0.2052
 21912 H2          -0.6840     4.0120   -23.7530 H      1000  TIP850      0.2052
 21913 OH2         15.9050    17.8680   -18.6490 O.3    1001  TIP851     -0.4105
 21914 H1          16.0170    16.9670   -18.9510 H      1001  TIP851      0.2052
 21915 H2          16.5650    18.3660   -19.1300 H      1001  TIP851      0.2052
 21916 OH2         24.8950     5.5870   -44.7890 O.3    1002  TIP852     -0.4105
 21917 H1          25.2400     4.7180   -44.9910 H      1002  TIP852      0.2052
 21918 H2          23.9830     5.5570   -45.0780 H      1002  TIP852      0.2052
 21919 OH2         15.3380   -25.3690    28.1510 O.3    1003  TIP853     -0.4105
 21920 H1          15.1070   -25.1340    27.2530 H      1003  TIP853      0.2052
 21921 H2          16.2610   -25.1290    28.2320 H      1003  TIP853      0.2052
 21922 OH2        -23.0490     5.2390    54.4880 O.3    1004  TIP854     -0.4105
 21923 H1         -23.7230     5.9180    54.5250 H      1004  TIP854      0.2052
 21924 H2         -23.3910     4.5310    55.0340 H      1004  TIP854      0.2052
 21925 OH2         -5.1740    -3.1370   -18.9020 O.3    1005  TIP855     -0.4105
 21926 H1          -5.0230    -2.6010   -18.1230 H      1005  TIP855      0.2052
 21927 H2          -5.5930    -2.5430   -19.5240 H      1005  TIP855      0.2052
 21928 OH2        -32.1260    28.8630    45.5140 O.3    1006  TIP856     -0.4105
 21929 H1         -31.5730    29.0870    44.7650 H      1006  TIP856      0.2052
 21930 H2         -32.6370    28.1100    45.2190 H      1006  TIP856      0.2052
 21931 OH2          0.1130    18.3740   -30.0810 O.3    1007  TIP857     -0.4105
 21932 H1           0.6410    19.0360   -29.6350 H      1007  TIP857      0.2052
 21933 H2          -0.4440    18.8740   -30.6780 H      1007  TIP857      0.2052
 21934 OH2         -7.0450   -14.7720   -34.4490 O.3    1008  TIP858     -0.4105
 21935 H1          -7.6500   -14.6820   -33.7130 H      1008  TIP858      0.2052
 21936 H2          -7.5240   -14.4190   -35.1990 H      1008  TIP858      0.2052
 21937 OH2          3.8890     6.0740    31.8510 O.3    1009  TIP859     -0.4105
 21938 H1           3.6000     6.6230    31.1230 H      1009  TIP859      0.2052
 21939 H2           3.4210     5.2480    31.7290 H      1009  TIP859      0.2052
 21940 OH2         25.9640   -30.4980   -22.3860 O.3    1010  TIP860     -0.4105
 21941 H1          26.7610   -30.3290   -22.8880 H      1010  TIP860      0.2052
 21942 H2          25.4830   -29.6710   -22.4140 H      1010  TIP860      0.2052
 21943 OH2         21.1540    15.2290    43.3080 O.3    1011  TIP861     -0.4105
 21944 H1          20.9750    14.3750    42.9130 H      1011  TIP861      0.2052
 21945 H2          20.6820    15.2110    44.1410 H      1011  TIP861      0.2052
 21946 OH2        -15.4410   -18.7320   -24.7220 O.3    1012  TIP862     -0.4105
 21947 H1         -14.8680   -18.5510   -25.4670 H      1012  TIP862      0.2052
 21948 H2         -15.5410   -19.6840   -24.7220 H      1012  TIP862      0.2052
 21949 OH2         19.1140    20.0020   -44.8810 O.3    1013  TIP863     -0.4105
 21950 H1          18.2380    20.3840   -44.8250 H      1013  TIP863      0.2052
 21951 H2          19.0510    19.3610   -45.5890 H      1013  TIP863      0.2052
 21952 OH2        -25.1250    32.4270    38.4820 O.3    1014  TIP864     -0.4105
 21953 H1         -24.6200    33.1970    38.2210 H      1014  TIP864      0.2052
 21954 H2         -25.3580    32.0020    37.6560 H      1014  TIP864      0.2052
 21955 OH2        -10.1860    29.6680   -47.9420 O.3    1015  TIP865     -0.4105
 21956 H1          -9.7820    29.0870   -47.2970 H      1015  TIP865      0.2052
 21957 H2          -9.5090    30.3140   -48.1400 H      1015  TIP865      0.2052
 21958 OH2        -20.6820   -11.9850   -36.1850 O.3    1016  TIP866     -0.4105
 21959 H1         -20.5310   -11.4930   -35.3780 H      1016  TIP866      0.2052
 21960 H2         -21.4350   -11.5550   -36.5900 H      1016  TIP866      0.2052
 21961 OH2          2.9630    -4.5790   -33.1930 O.3    1017  TIP867     -0.4105
 21962 H1           2.5620    -5.0980   -32.4970 H      1017  TIP867      0.2052
 21963 H2           2.9120    -5.1370   -33.9690 H      1017  TIP867      0.2052
 21964 OH2        -23.6230    28.5910   -24.8340 O.3    1018  TIP868     -0.4105
 21965 H1         -22.9250    28.2800   -24.2580 H      1018  TIP868      0.2052
 21966 H2         -24.3730    28.0340   -24.6230 H      1018  TIP868      0.2052
 21967 OH2          1.8880     4.6250    36.9990 O.3    1019  TIP869     -0.4105
 21968 H1           1.8460     5.5540    37.2290 H      1019  TIP869      0.2052
 21969 H2           1.0010     4.3000    37.1520 H      1019  TIP869      0.2052
 21970 OH2         13.7980   -26.0110    30.3310 O.3    1020  TIP870     -0.4105
 21971 H1          14.4370   -25.8180    29.6450 H      1020  TIP870      0.2052
 21972 H2          13.7390   -25.2030    30.8400 H      1020  TIP870      0.2052
 21973 OH2        -14.5480   -17.7460   -38.8810 O.3    1021  TIP871     -0.4105
 21974 H1         -15.3430   -17.2150   -38.8320 H      1021  TIP871      0.2052
 21975 H2         -14.8570   -18.6480   -38.8000 H      1021  TIP871      0.2052
 21976 OH2        -29.9870    23.7390    20.6820 O.3    1022  TIP872     -0.4105
 21977 H1         -29.8370    22.9910    20.1030 H      1022  TIP872      0.2052
 21978 H2         -30.9370    23.8620    20.6730 H      1022  TIP872      0.2052
 21979 OH2         -4.6720    31.4630    34.0950 O.3    1023  TIP873     -0.4105
 21980 H1          -5.3730    31.4630    33.4430 H      1023  TIP873      0.2052
 21981 H2          -3.9150    31.8250    33.6350 H      1023  TIP873      0.2052
 21982 OH2         14.3800   -30.9840   -48.9110 O.3    1024  TIP874     -0.4105
 21983 H1          14.4400   -31.0350   -47.9570 H      1024  TIP874      0.2052
 21984 H2          15.2870   -31.0330   -49.2110 H      1024  TIP874      0.2052
 21985 OH2        -23.3890   -20.1770   -40.8980 O.3    1025  TIP875     -0.4105
 21986 H1         -23.5320   -20.8010   -41.6090 H      1025  TIP875      0.2052
 21987 H2         -24.1910   -19.6540   -40.8730 H      1025  TIP875      0.2052
 21988 OH2         23.3280    -8.8270   -14.0320 O.3    1026  TIP876     -0.4105
 21989 H1          23.3520    -8.3630   -13.1950 H      1026  TIP876      0.2052
 21990 H2          23.3070    -9.7530   -13.7910 H      1026  TIP876      0.2052
 21991 OH2        -28.2270    30.9570    38.0300 O.3    1027  TIP877     -0.4105
 21992 H1         -28.7910    30.9170    38.8020 H      1027  TIP877      0.2052
 21993 H2         -28.8280    31.1190    37.3030 H      1027  TIP877      0.2052
 21994 OH2         12.9440   -17.5220   -54.6940 O.3    1028  TIP878     -0.4105
 21995 H1          12.6990   -16.9240   -55.4000 H      1028  TIP878      0.2052
 21996 H2          13.5460   -18.1430   -55.1040 H      1028  TIP878      0.2052
 21997 OH2        -25.3040     7.1140    30.9580 O.3    1029  TIP879     -0.4105
 21998 H1         -25.7190     6.6880    31.7080 H      1029  TIP879      0.2052
 21999 H2         -24.6230     7.6660    31.3420 H      1029  TIP879      0.2052
 22000 OH2          5.5620     3.5470    33.5330 O.3    1030  TIP880     -0.4105
 22001 H1           5.7010     4.0990    32.7630 H      1030  TIP880      0.2052
 22002 H2           6.3190     2.9620    33.5490 H      1030  TIP880      0.2052
 22003 OH2        -19.1050    13.4270    44.2180 O.3    1031  TIP881     -0.4105
 22004 H1         -18.5110    13.3950    43.4680 H      1031  TIP881      0.2052
 22005 H2         -18.6220    12.9980    44.9250 H      1031  TIP881      0.2052
 22006 OH2        -25.5810   -25.8210    37.7710 O.3    1032  TIP882     -0.4105
 22007 H1         -25.4540   -26.7300    38.0460 H      1032  TIP882      0.2052
 22008 H2         -26.4110   -25.8300    37.2940 H      1032  TIP882      0.2052
 22009 OH2        -28.3720   -22.5290    29.7420 O.3    1033  TIP883     -0.4105
 22010 H1         -28.5620   -22.2500    28.8460 H      1033  TIP883      0.2052
 22011 H2         -27.4270   -22.4090    29.8350 H      1033  TIP883      0.2052
 22012 OH2         -2.8530    17.6420    38.0380 O.3    1034  TIP884     -0.4105
 22013 H1          -2.0830    18.2100    38.0050 H      1034  TIP884      0.2052
 22014 H2          -3.4800    18.0540    37.4440 H      1034  TIP884      0.2052
 22015 OH2        -31.7150     9.4640   -18.1220 O.3    1035  TIP885     -0.4105
 22016 H1         -30.9470     9.9620   -17.8420 H      1035  TIP885      0.2052
 22017 H2         -32.0440     9.9380   -18.8860 H      1035  TIP885      0.2052
 22018 OH2         -5.0200     1.2110    26.1680 O.3    1036  TIP886     -0.4105
 22019 H1          -4.2560     0.6350    26.1910 H      1036  TIP886      0.2052
 22020 H2          -4.8220     1.8980    26.8040 H      1036  TIP886      0.2052
 22021 OH2        -19.7390     6.0400   -27.1440 O.3    1037  TIP887     -0.4105
 22022 H1         -20.1350     5.3900   -27.7250 H      1037  TIP887      0.2052
 22023 H2         -18.8560     6.1650   -27.4910 H      1037  TIP887      0.2052
 22024 OH2         -8.0490    -8.0830   -38.1470 O.3    1038  TIP888     -0.4105
 22025 H1          -8.3270    -8.8780   -37.6920 H      1038  TIP888      0.2052
 22026 H2          -8.4090    -7.3680   -37.6220 H      1038  TIP888      0.2052
 22027 OH2        -25.1600    26.9830    39.0310 O.3    1039  TIP889     -0.4105
 22028 H1         -25.8350    26.5450    38.5140 H      1039  TIP889      0.2052
 22029 H2         -24.3760    26.9460    38.4830 H      1039  TIP889      0.2052
 22030 OH2          6.6530    27.5600   -50.8420 O.3    1040  TIP890     -0.4105
 22031 H1           7.2740    28.2170   -50.5280 H      1040  TIP890      0.2052
 22032 H2           7.1830    26.7760   -50.9830 H      1040  TIP890      0.2052
 22033 OH2         -5.0140    17.7710    30.9850 O.3    1041  TIP891     -0.4105
 22034 H1          -4.1820    18.1160    30.6610 H      1041  TIP891      0.2052
 22035 H2          -5.5840    17.7600    30.2160 H      1041  TIP891      0.2052
 22036 OH2         27.3260    26.8430    18.4050 O.3    1042  TIP892     -0.4105
 22037 H1          27.0500    27.6300    17.9360 H      1042  TIP892      0.2052
 22038 H2          26.6560    26.7180    19.0770 H      1042  TIP892      0.2052
 22039 OH2         -5.8760     7.3430    32.4900 O.3    1043  TIP893     -0.4105
 22040 H1          -6.0030     7.1340    33.4150 H      1043  TIP893      0.2052
 22041 H2          -6.7630     7.4320    32.1400 H      1043  TIP893      0.2052
 22042 OH2         13.0370    -2.9510    -7.8000 O.3    1044  TIP894     -0.4105
 22043 H1          12.1480    -2.8670    -8.1430 H      1044  TIP894      0.2052
 22044 H2          13.6020    -2.7100    -8.5340 H      1044  TIP894      0.2052
 22045 OH2         18.9530    18.8140    47.9370 O.3    1045  TIP895     -0.4105
 22046 H1          19.2360    19.6500    48.3080 H      1045  TIP895      0.2052
 22047 H2          18.3950    18.4280    48.6120 H      1045  TIP895      0.2052
 22048 OH2          2.3230    -1.8110   -22.2230 O.3    1046  TIP896     -0.4105
 22049 H1           2.6040    -1.6330   -23.1200 H      1046  TIP896      0.2052
 22050 H2           3.1370    -1.9620   -21.7420 H      1046  TIP896      0.2052
 22051 OH2          1.3950    10.3830   -23.1840 O.3    1047  TIP897     -0.4105
 22052 H1           1.7490     9.5120   -23.0040 H      1047  TIP897      0.2052
 22053 H2           1.7150    10.9260   -22.4630 H      1047  TIP897      0.2052
 22054 OH2         19.5230     5.2610    46.5840 O.3    1048  TIP898     -0.4105
 22055 H1          20.1280     5.4110    47.3100 H      1048  TIP898      0.2052
 22056 H2          18.6610     5.2050    46.9970 H      1048  TIP898      0.2052
 22057 OH2        -27.7700    14.2240    50.7460 O.3    1049  TIP899     -0.4105
 22058 H1         -28.3540    14.9330    51.0160 H      1049  TIP899      0.2052
 22059 H2         -27.2880    13.9960    51.5410 H      1049  TIP899      0.2052
 22060 OH2        -30.8490   -30.7130    33.3670 O.3    1050  TIP900     -0.4105
 22061 H1         -31.3330   -30.7670    32.5430 H      1050  TIP900      0.2052
 22062 H2         -30.0510   -30.2320    33.1450 H      1050  TIP900      0.2052
 22063 OH2         -7.6420   -18.7660    44.7730 O.3    1051  TIP901     -0.4105
 22064 H1          -8.5820   -18.9340    44.7050 H      1051  TIP901      0.2052
 22065 H2          -7.5510   -18.2310    45.5620 H      1051  TIP901      0.2052
 22066 OH2         24.8730    -2.7690    43.0150 O.3    1052  TIP902     -0.4105
 22067 H1          25.3160    -2.9700    43.8390 H      1052  TIP902      0.2052
 22068 H2          24.0070    -2.4560    43.2770 H      1052  TIP902      0.2052
 22069 OH2        -24.9730    30.6450    29.0350 O.3    1053  TIP903     -0.4105
 22070 H1         -25.1920    30.9090    28.1420 H      1053  TIP903      0.2052
 22071 H2         -25.7940    30.3090    29.3940 H      1053  TIP903      0.2052
 22072 OH2         19.3600   -20.6340   -37.3110 O.3    1054  TIP904     -0.4105
 22073 H1          18.6400   -20.6150   -37.9410 H      1054  TIP904      0.2052
 22074 H2          19.6830   -19.7320   -37.2870 H      1054  TIP904      0.2052
 22075 OH2         16.8990     5.1390   -31.2390 O.3    1055  TIP905     -0.4105
 22076 H1          17.5500     4.5510   -30.8570 H      1055  TIP905      0.2052
 22077 H2          16.7400     5.7950   -30.5600 H      1055  TIP905      0.2052
 22078 OH2        -11.1380    14.6560   -23.3940 O.3    1056  TIP906     -0.4105
 22079 H1         -10.7820    14.7980   -22.5170 H      1056  TIP906      0.2052
 22080 H2         -11.5580    15.4860   -23.6190 H      1056  TIP906      0.2052
 22081 OH2        -30.4150    15.9160    33.7600 O.3    1057  TIP907     -0.4105
 22082 H1         -30.1050    15.6400    32.8980 H      1057  TIP907      0.2052
 22083 H2         -29.6160    16.0410    34.2730 H      1057  TIP907      0.2052
 22084 OH2          4.3370   -23.1610   -25.1230 O.3    1058  TIP908     -0.4105
 22085 H1           4.1610   -22.2230   -25.0490 H      1058  TIP908      0.2052
 22086 H2           3.9200   -23.5450   -24.3520 H      1058  TIP908      0.2052
 22087 OH2         10.6780    30.8660   -39.4760 O.3    1059  TIP909     -0.4105
 22088 H1          11.0600    30.5400   -38.6610 H      1059  TIP909      0.2052
 22089 H2          10.8890    31.8000   -39.4830 H      1059  TIP909      0.2052
 22090 OH2        -26.4980     5.8840   -40.9260 O.3    1060  TIP910     -0.4105
 22091 H1         -25.9050     5.5360   -41.5910 H      1060  TIP910      0.2052
 22092 H2         -26.8440     6.6900   -41.3100 H      1060  TIP910      0.2052
 22093 OH2        -10.7720   -14.9740   -42.0880 O.3    1061  TIP911     -0.4105
 22094 H1          -9.8790   -14.6310   -42.0520 H      1061  TIP911      0.2052
 22095 H2         -11.1740   -14.5150   -42.8260 H      1061  TIP911      0.2052
 22096 OH2         23.1430    29.2700    36.3990 O.3    1062  TIP912     -0.4105
 22097 H1          23.0040    28.8600    35.5460 H      1062  TIP912      0.2052
 22098 H2          24.0520    29.0650    36.6190 H      1062  TIP912      0.2052
 22099 OH2        -28.8530   -15.8640   -48.1600 O.3    1063  TIP913     -0.4105
 22100 H1         -29.8070   -15.8630   -48.0730 H      1063  TIP913      0.2052
 22101 H2         -28.6630   -15.1190   -48.7290 H      1063  TIP913      0.2052
 22102 OH2         32.9990    -6.1300    30.5700 O.3    1064  TIP914     -0.4105
 22103 H1          33.1790    -6.8740    31.1450 H      1064  TIP914      0.2052
 22104 H2          32.1700    -5.7740    30.8900 H      1064  TIP914      0.2052
 22105 OH2         -9.3680    12.2730    35.9900 O.3    1065  TIP915     -0.4105
 22106 H1          -9.7090    11.5290    36.4870 H      1065  TIP915      0.2052
 22107 H2          -8.4590    12.0390    35.8020 H      1065  TIP915      0.2052
 22108 OH2         -6.1080   -12.1620    45.7130 O.3    1066  TIP916     -0.4105
 22109 H1          -6.6620   -11.4970    45.3040 H      1066  TIP916      0.2052
 22110 H2          -6.5480   -12.9910    45.5220 H      1066  TIP916      0.2052
 22111 OH2        -28.6550   -25.9250   -36.0150 O.3    1067  TIP917     -0.4105
 22112 H1         -28.9780   -25.3020   -35.3650 H      1067  TIP917      0.2052
 22113 H2         -28.5600   -26.7470   -35.5340 H      1067  TIP917      0.2052
 22114 OH2        -29.4870    -8.0810    51.9590 O.3    1068  TIP918     -0.4105
 22115 H1         -29.8840    -7.2840    51.6060 H      1068  TIP918      0.2052
 22116 H2         -29.1770    -7.8300    52.8290 H      1068  TIP918      0.2052
 22117 OH2          8.5220     2.4850   -23.6140 O.3    1069  TIP919     -0.4105
 22118 H1           8.3240     3.3920   -23.3800 H      1069  TIP919      0.2052
 22119 H2           9.1490     2.5530   -24.3340 H      1069  TIP919      0.2052
 22120 OH2        -24.3490   -14.5520   -33.1510 O.3    1070  TIP920     -0.4105
 22121 H1         -25.1040   -15.1180   -32.9900 H      1070  TIP920      0.2052
 22122 H2         -23.8390   -14.5960   -32.3420 H      1070  TIP920      0.2052
 22123 OH2        -27.3880    18.0690   -41.4200 O.3    1071  TIP921     -0.4105
 22124 H1         -27.7110    18.2790   -40.5440 H      1071  TIP921      0.2052
 22125 H2         -28.1670    17.7910   -41.9020 H      1071  TIP921      0.2052
 22126 OH2         13.2360    22.1140    39.0980 O.3    1072  TIP922     -0.4105
 22127 H1          14.0680    21.6460    39.0330 H      1072  TIP922      0.2052
 22128 H2          12.7820    21.6970    39.8300 H      1072  TIP922      0.2052
 22129 OH2         24.4540    -6.4370    35.7370 O.3    1073  TIP923     -0.4105
 22130 H1          24.8860    -5.6050    35.9320 H      1073  TIP923      0.2052
 22131 H2          23.5460    -6.1980    35.5530 H      1073  TIP923      0.2052
 22132 OH2        -14.1760    10.4100   -42.4590 O.3    1074  TIP924     -0.4105
 22133 H1         -15.0100    10.3840   -41.9900 H      1074  TIP924      0.2052
 22134 H2         -13.5140    10.4360   -41.7680 H      1074  TIP924      0.2052
 22135 OH2         22.4860    -7.6840   -36.1910 O.3    1075  TIP925     -0.4105
 22136 H1          22.1190    -8.1350   -36.9520 H      1075  TIP925      0.2052
 22137 H2          22.1990    -6.7760   -36.2890 H      1075  TIP925      0.2052
 22138 OH2         28.1810   -30.2230   -31.5690 O.3    1076  TIP926     -0.4105
 22139 H1          28.6620   -30.0140   -30.7680 H      1076  TIP926      0.2052
 22140 H2          28.7790   -29.9860   -32.2770 H      1076  TIP926      0.2052
 22141 OH2          1.2000    -3.7810   -47.5560 O.3    1077  TIP927     -0.4105
 22142 H1           1.9810    -3.7050   -48.1030 H      1077  TIP927      0.2052
 22143 H2           0.5410    -4.1690   -48.1320 H      1077  TIP927      0.2052
 22144 OH2        -18.4500     3.0190   -25.0520 O.3    1078  TIP928     -0.4105
 22145 H1         -18.5930     2.0990   -24.8320 H      1078  TIP928      0.2052
 22146 H2         -18.9720     3.1610   -25.8420 H      1078  TIP928      0.2052
 22147 OH2         31.8960     5.4400   -48.3920 O.3    1079  TIP929     -0.4105
 22148 H1          32.1080     5.3490   -47.4640 H      1079  TIP929      0.2052
 22149 H2          31.1910     6.0880   -48.4150 H      1079  TIP929      0.2052
 22150 OH2        -26.5100    12.0980    40.9890 O.3    1080  TIP930     -0.4105
 22151 H1         -26.4090    12.0960    40.0370 H      1080  TIP930      0.2052
 22152 H2         -26.3520    11.1910    41.2490 H      1080  TIP930      0.2052
 22153 OH2         20.1480    29.6490    49.5320 O.3    1081  TIP931     -0.4105
 22154 H1          19.5190    29.4760    50.2320 H      1081  TIP931      0.2052
 22155 H2          19.8800    29.0690    48.8200 H      1081  TIP931      0.2052
 22156 OH2          5.4920    -6.2800   -51.9900 O.3    1082  TIP932     -0.4105
 22157 H1           5.8240    -5.9730   -52.8340 H      1082  TIP932      0.2052
 22158 H2           5.9200    -5.7170   -51.3450 H      1082  TIP932      0.2052
 22159 OH2        -24.6530    20.0090    32.1310 O.3    1083  TIP933     -0.4105
 22160 H1         -23.8340    20.2660    31.7060 H      1083  TIP933      0.2052
 22161 H2         -24.4330    19.2150    32.6170 H      1083  TIP933      0.2052
 22162 OH2          0.0970    15.0000   -40.0780 O.3    1084  TIP934     -0.4105
 22163 H1          -0.3010    14.2930   -39.5700 H      1084  TIP934      0.2052
 22164 H2           1.0310    14.9470   -39.8710 H      1084  TIP934      0.2052
 22165 OH2         -5.8580   -21.2830    33.7320 O.3    1085  TIP935     -0.4105
 22166 H1          -4.9010   -21.2730    33.7560 H      1085  TIP935      0.2052
 22167 H2          -6.0960   -22.1530    34.0520 H      1085  TIP935      0.2052
 22168 OH2         25.7340   -21.1290   -42.8010 O.3    1086  TIP936     -0.4105
 22169 H1          26.5140   -21.6210   -43.0570 H      1086  TIP936      0.2052
 22170 H2          25.7210   -21.1800   -41.8450 H      1086  TIP936      0.2052
 22171 OH2         32.7910   -28.0230   -41.9440 O.3    1087  TIP937     -0.4105
 22172 H1          33.4340   -28.5420   -41.4610 H      1087  TIP937      0.2052
 22173 H2          33.2950   -27.6120   -42.6470 H      1087  TIP937      0.2052
 22174 OH2         19.8120    10.5450    54.8710 O.3    1088  TIP938     -0.4105
 22175 H1          19.5390    11.4620    54.8890 H      1088  TIP938      0.2052
 22176 H2          20.6400    10.5310    55.3510 H      1088  TIP938      0.2052
 22177 OH2        -28.9080   -33.0170   -34.8580 O.3    1089  TIP939     -0.4105
 22178 H1         -28.7870   -32.0740   -34.9730 H      1089  TIP939      0.2052
 22179 H2         -29.6390   -33.2370   -35.4350 H      1089  TIP939      0.2052
 22180 OH2         -6.3210   -18.8900    38.8340 O.3    1090  TIP940     -0.4105
 22181 H1          -6.4510   -19.5760    38.1800 H      1090  TIP940      0.2052
 22182 H2          -6.7630   -18.1240    38.4700 H      1090  TIP940      0.2052
 22183 OH2        -10.3450   -15.2820    34.9330 O.3    1091  TIP941     -0.4105
 22184 H1          -9.7830   -15.8820    35.4240 H      1091  TIP941      0.2052
 22185 H2         -11.2350   -15.5260    35.1840 H      1091  TIP941      0.2052
 22186 OH2        -14.9380    30.5860   -32.7370 O.3    1092  TIP942     -0.4105
 22187 H1         -14.2950    30.0290   -32.2970 H      1092  TIP942      0.2052
 22188 H2         -14.6950    31.4770   -32.4860 H      1092  TIP942      0.2052
 22189 OH2          6.7410   -29.7280   -34.9700 O.3    1093  TIP943     -0.4105
 22190 H1           7.0030   -28.9600   -35.4780 H      1093  TIP943      0.2052
 22191 H2           6.3450   -29.3670   -34.1770 H      1093  TIP943      0.2052
 22192 OH2         -3.9360   -22.1000   -43.7430 O.3    1094  TIP944     -0.4105
 22193 H1          -3.1110   -22.2080   -43.2680 H      1094  TIP944      0.2052
 22194 H2          -3.6910   -21.6520   -44.5520 H      1094  TIP944      0.2052
 22195 OH2        -28.5590   -13.8540   -49.6680 O.3    1095  TIP945     -0.4105
 22196 H1         -28.7050   -12.9230   -49.8380 H      1095  TIP945      0.2052
 22197 H2         -28.1080   -14.1730   -50.4490 H      1095  TIP945      0.2052
 22198 OH2        -32.4730    17.8530   -49.1460 O.3    1096  TIP946     -0.4105
 22199 H1         -31.7540    17.2890   -49.4290 H      1096  TIP946      0.2052
 22200 H2         -33.1780    17.2470   -48.9200 H      1096  TIP946      0.2052
 22201 OH2         -5.3420   -13.7950   -40.3830 O.3    1097  TIP947     -0.4105
 22202 H1          -5.0480   -13.8910   -41.2890 H      1097  TIP947      0.2052
 22203 H2          -5.5880   -12.8730   -40.3070 H      1097  TIP947      0.2052
 22204 OH2        -25.5890    -8.7460   -46.1970 O.3    1098  TIP948     -0.4105
 22205 H1         -25.3530    -9.4530   -46.7970 H      1098  TIP948      0.2052
 22206 H2         -25.9410    -9.1920   -45.4270 H      1098  TIP948      0.2052
 22207 OH2         17.3080    -2.0920    32.5830 O.3    1099  TIP949     -0.4105
 22208 H1          17.6640    -1.3370    32.1140 H      1099  TIP949      0.2052
 22209 H2          18.0790    -2.5590    32.9050 H      1099  TIP949      0.2052
 22210 OH2         -1.3200    17.9770   -44.5970 O.3    1100  TIP950     -0.4105
 22211 H1          -2.1600    17.5200   -44.6510 H      1100  TIP950      0.2052
 22212 H2          -1.3090    18.5500   -45.3640 H      1100  TIP950      0.2052
 22213 OH2        -24.1900     1.2390   -24.6800 O.3    1101  TIP951     -0.4105
 22214 H1         -24.9770     1.7740   -24.7720 H      1101  TIP951      0.2052
 22215 H2         -24.3010     0.7910   -23.8410 H      1101  TIP951      0.2052
 22216 OH2          2.4650   -23.0670    29.0060 O.3    1102  TIP952     -0.4105
 22217 H1           3.3450   -22.6930    28.9660 H      1102  TIP952      0.2052
 22218 H2           2.1490   -22.8460    29.8820 H      1102  TIP952      0.2052
 22219 OH2         -9.1540   -10.3470   -36.8600 O.3    1103  TIP953     -0.4105
 22220 H1          -8.3150   -10.7900   -36.9850 H      1103  TIP953      0.2052
 22221 H2          -9.5030   -10.7170   -36.0490 H      1103  TIP953      0.2052
 22222 OH2         31.0860    -5.3080    25.0440 O.3    1104  TIP954     -0.4105
 22223 H1          31.3820    -5.5140    25.9310 H      1104  TIP954      0.2052
 22224 H2          31.3250    -6.0770    24.5260 H      1104  TIP954      0.2052
 22225 OH2         11.1060    23.2460   -33.4810 O.3    1105  TIP955     -0.4105
 22226 H1          11.0540    24.0060   -32.9020 H      1105  TIP955      0.2052
 22227 H2          11.6970    23.5190   -34.1830 H      1105  TIP955      0.2052
 22228 OH2        -23.1180    21.4920   -40.6680 O.3    1106  TIP956     -0.4105
 22229 H1         -23.9290    21.0260   -40.8700 H      1106  TIP956      0.2052
 22230 H2         -23.3520    22.0820   -39.9510 H      1106  TIP956      0.2052
 22231 OH2        -29.5070     5.5700    20.3140 O.3    1107  TIP957     -0.4105
 22232 H1         -30.0640     5.6160    21.0900 H      1107  TIP957      0.2052
 22233 H2         -28.8520     4.9050    20.5280 H      1107  TIP957      0.2052
 22234 OH2          9.4170    -1.8100   -23.4240 O.3    1108  TIP958     -0.4105
 22235 H1           8.9110    -2.5600   -23.7350 H      1108  TIP958      0.2052
 22236 H2          10.3110    -2.1410   -23.3400 H      1108  TIP958      0.2052
 22237 OH2         -2.2670    21.7900    39.4070 O.3    1109  TIP959     -0.4105
 22238 H1          -2.2260    21.3580    40.2610 H      1109  TIP959      0.2052
 22239 H2          -3.1750    22.0830    39.3300 H      1109  TIP959      0.2052
 22240 OH2         31.3080     9.6960   -30.7810 O.3    1110  TIP960     -0.4105
 22241 H1          31.5810    10.6100   -30.6990 H      1110  TIP960      0.2052
 22242 H2          32.1270     9.2060   -30.8480 H      1110  TIP960      0.2052
 22243 OH2         -2.9440    29.6230   -33.6330 O.3    1111  TIP961     -0.4105
 22244 H1          -2.2090    29.7960   -34.2220 H      1111  TIP961      0.2052
 22245 H2          -2.6650    29.9780   -32.7900 H      1111  TIP961      0.2052
 22246 OH2        -13.9440   -29.8720   -51.0700 O.3    1112  TIP962     -0.4105
 22247 H1         -14.7220   -30.1260   -51.5670 H      1112  TIP962      0.2052
 22248 H2         -13.4210   -29.3610   -51.6880 H      1112  TIP962      0.2052
 22249 OH2        -24.5750   -19.6540    47.3840 O.3    1113  TIP963     -0.4105
 22250 H1         -24.5130   -19.5920    46.4310 H      1113  TIP963      0.2052
 22251 H2         -23.7030   -19.4140    47.6980 H      1113  TIP963      0.2052
 22252 OH2         15.3880    -8.5180    48.8570 O.3    1114  TIP964     -0.4105
 22253 H1          15.8280    -7.6890    49.0400 H      1114  TIP964      0.2052
 22254 H2          15.8620    -9.1630    49.3820 H      1114  TIP964      0.2052
 22255 OH2         -1.6210    29.4590    26.0540 O.3    1115  TIP965     -0.4105
 22256 H1          -1.9580    28.5840    25.8600 H      1115  TIP965      0.2052
 22257 H2          -0.7840    29.5030    25.5910 H      1115  TIP965      0.2052
 22258 OH2         14.1360    -3.6240    46.0490 O.3    1116  TIP966     -0.4105
 22259 H1          15.0890    -3.5590    46.1020 H      1116  TIP966      0.2052
 22260 H2          13.8830    -4.0950    46.8430 H      1116  TIP966      0.2052
 22261 OH2         12.5130    13.5070   -29.5970 O.3    1117  TIP967     -0.4105
 22262 H1          12.0770    12.9970   -30.2790 H      1117  TIP967      0.2052
 22263 H2          12.8550    14.2750   -30.0550 H      1117  TIP967      0.2052
 22264 OH2        -18.5650   -21.5920   -20.5960 O.3    1118  TIP968     -0.4105
 22265 H1         -18.0480   -22.2330   -21.0850 H      1118  TIP968      0.2052
 22266 H2         -19.2480   -22.1100   -20.1710 H      1118  TIP968      0.2052
 22267 OH2          1.4870     7.2530    50.7000 O.3    1119  TIP969     -0.4105
 22268 H1           2.0670     7.3230    49.9420 H      1119  TIP969      0.2052
 22269 H2           1.6160     6.3600    51.0190 H      1119  TIP969      0.2052
 22270 OH2        -22.1450   -17.8070   -40.0190 O.3    1120  TIP970     -0.4105
 22271 H1         -22.2070   -16.9390   -40.4170 H      1120  TIP970      0.2052
 22272 H2         -22.7110   -18.3590   -40.5580 H      1120  TIP970      0.2052
 22273 OH2         15.9830    21.9720   -29.1000 O.3    1121  TIP971     -0.4105
 22274 H1          15.5660    22.5360   -29.7520 H      1121  TIP971      0.2052
 22275 H2          16.9080    21.9650   -29.3450 H      1121  TIP971      0.2052
 22276 OH2         23.5110    19.2640   -35.2090 O.3    1122  TIP972     -0.4105
 22277 H1          23.3390    19.9110   -34.5250 H      1122  TIP972      0.2052
 22278 H2          23.0380    19.5930   -35.9740 H      1122  TIP972      0.2052
 22279 OH2        -10.3250    11.6600   -28.5520 O.3    1123  TIP973     -0.4105
 22280 H1         -10.6220    10.8850   -28.0740 H      1123  TIP973      0.2052
 22281 H2          -9.3850    11.5260   -28.6660 H      1123  TIP973      0.2052
 22282 OH2         19.3650    25.0220    42.9470 O.3    1124  TIP974     -0.4105
 22283 H1          20.1600    24.8580    43.4550 H      1124  TIP974      0.2052
 22284 H2          18.9060    25.7070    43.4350 H      1124  TIP974      0.2052
 22285 OH2        -12.5780     5.2960    47.9700 O.3    1125  TIP975     -0.4105
 22286 H1         -12.8640     5.8250    48.7140 H      1125  TIP975      0.2052
 22287 H2         -13.0430     4.4660    48.0730 H      1125  TIP975      0.2052
 22288 OH2         20.9950    20.3540   -37.0520 O.3    1126  TIP976     -0.4105
 22289 H1          20.4020    20.8260   -36.4680 H      1126  TIP976      0.2052
 22290 H2          20.5340    19.5410   -37.2570 H      1126  TIP976      0.2052
 22291 OH2         14.4450    -8.2910    53.0810 O.3    1127  TIP977     -0.4105
 22292 H1          14.6040    -8.1790    54.0180 H      1127  TIP977      0.2052
 22293 H2          13.9200    -7.5300    52.8340 H      1127  TIP977      0.2052
 22294 OH2        -26.1350    -4.0000    30.5610 O.3    1128  TIP978     -0.4105
 22295 H1         -26.3880    -4.8180    30.9880 H      1128  TIP978      0.2052
 22296 H2         -26.5190    -4.0580    29.6860 H      1128  TIP978      0.2052
 22297 OH2        -25.7330    -3.4470   -23.5530 O.3    1129  TIP979     -0.4105
 22298 H1         -25.7420    -4.2430   -23.0230 H      1129  TIP979      0.2052
 22299 H2         -26.6450    -3.1570   -23.5670 H      1129  TIP979      0.2052
 22300 OH2        -15.8700    -4.2590   -53.9250 O.3    1130  TIP980     -0.4105
 22301 H1         -14.9180    -4.2960   -54.0160 H      1130  TIP980      0.2052
 22302 H2         -16.0300    -3.4790   -53.3940 H      1130  TIP980      0.2052
 22303 OH2         24.7090   -23.7740    38.0000 O.3    1131  TIP981     -0.4105
 22304 H1          25.4150   -23.6840    37.3610 H      1131  TIP981      0.2052
 22305 H2          24.7020   -22.9390    38.4690 H      1131  TIP981      0.2052
 22306 OH2        -32.0000    25.0380   -40.8900 O.3    1132  TIP982     -0.4105
 22307 H1         -32.6920    24.4930   -41.2640 H      1132  TIP982      0.2052
 22308 H2         -32.4590    25.6370   -40.3010 H      1132  TIP982      0.2052
 22309 OH2        -28.1920    -9.1420   -53.5600 O.3    1133  TIP983     -0.4105
 22310 H1         -27.8810    -9.9600   -53.1740 H      1133  TIP983      0.2052
 22311 H2         -27.8230    -9.1370   -54.4430 H      1133  TIP983      0.2052
 22312 OH2          4.0390    12.2210   -12.8200 O.3    1134  TIP984     -0.4105
 22313 H1           3.2490    12.1350   -12.2860 H      1134  TIP984      0.2052
 22314 H2           4.0390    13.1360   -13.1020 H      1134  TIP984      0.2052
 22315 OH2         24.3710    32.9940   -35.7550 O.3    1135  TIP985     -0.4105
 22316 H1          23.4350    33.1540   -35.6310 H      1135  TIP985      0.2052
 22317 H2          24.8000    33.6130   -35.1640 H      1135  TIP985      0.2052
 22318 OH2        -31.7120    22.2700    43.9880 O.3    1136  TIP986     -0.4105
 22319 H1         -32.3000    22.6850    44.6190 H      1136  TIP986      0.2052
 22320 H2         -32.0900    22.4800    43.1340 H      1136  TIP986      0.2052
 22321 OH2        -26.3190   -26.2950   -46.5220 O.3    1137  TIP987     -0.4105
 22322 H1         -25.8620   -26.0730   -47.3340 H      1137  TIP987      0.2052
 22323 H2         -25.7390   -26.9160   -46.0820 H      1137  TIP987      0.2052
 22324 OH2        -11.3620    -1.2160    47.8180 O.3    1138  TIP988     -0.4105
 22325 H1         -11.2550    -0.2980    47.5690 H      1138  TIP988      0.2052
 22326 H2         -12.1330    -1.5080    47.3310 H      1138  TIP988      0.2052
 22327 OH2         13.5880   -18.0800   -27.5620 O.3    1139  TIP989     -0.4105
 22328 H1          14.3300   -17.5610   -27.2500 H      1139  TIP989      0.2052
 22329 H2          13.5390   -17.8900   -28.4990 H      1139  TIP989      0.2052
 22330 OH2         30.2580   -19.1100    21.8850 O.3    1140  TIP990     -0.4105
 22331 H1          29.4330   -18.6260    21.8480 H      1140  TIP990      0.2052
 22332 H2          30.8510   -18.6170    21.3170 H      1140  TIP990      0.2052
 22333 OH2         16.1750    32.7060   -33.6810 O.3    1141  TIP991     -0.4105
 22334 H1          15.9440    31.8930   -33.2310 H      1141  TIP991      0.2052
 22335 H2          16.3010    32.4470   -34.5940 H      1141  TIP991      0.2052
 22336 OH2        -26.2420    14.4460    29.5850 O.3    1142  TIP992     -0.4105
 22337 H1         -25.4860    15.0280    29.6600 H      1142  TIP992      0.2052
 22338 H2         -26.8630    14.9280    29.0390 H      1142  TIP992      0.2052
 22339 OH2         -1.8750    23.6530   -41.4220 O.3    1143  TIP993     -0.4105
 22340 H1          -1.3920    22.8300   -41.5050 H      1143  TIP993      0.2052
 22341 H2          -1.5760    24.1820   -42.1610 H      1143  TIP993      0.2052
 22342 OH2        -19.7810     6.6260    31.7090 O.3    1144  TIP994     -0.4105
 22343 H1         -19.1330     7.2460    32.0440 H      1144  TIP994      0.2052
 22344 H2         -19.3700     5.7680    31.8180 H      1144  TIP994      0.2052
 22345 OH2         21.7680    -5.7400   -40.0370 O.3    1145  TIP995     -0.4105
 22346 H1          22.2110    -5.1280   -40.6260 H      1145  TIP995      0.2052
 22347 H2          21.9260    -5.3870   -39.1620 H      1145  TIP995      0.2052
 22348 OH2          5.6600   -31.4650   -30.5530 O.3    1146  TIP996     -0.4105
 22349 H1           6.4850   -31.9340   -30.6760 H      1146  TIP996      0.2052
 22350 H2           5.7630   -31.0140   -29.7150 H      1146  TIP996      0.2052
 22351 OH2         -2.4460    19.2950    41.4500 O.3    1147  TIP997     -0.4105
 22352 H1          -3.2770    18.9470    41.1270 H      1147  TIP997      0.2052
 22353 H2          -1.7890    18.6700    41.1430 H      1147  TIP997      0.2052
 22354 OH2         16.1550    -9.7280   -32.9630 O.3    1148  TIP998     -0.4105
 22355 H1          16.0750   -10.1650   -33.8110 H      1148  TIP998      0.2052
 22356 H2          17.0690    -9.4480   -32.9220 H      1148  TIP998      0.2052
 22357 OH2         22.4650    29.8660   -26.9710 O.3    1149  TIP999     -0.4105
 22358 H1          22.3620    29.1790   -26.3110 H      1149  TIP999      0.2052
 22359 H2          22.3500    30.6830   -26.4860 H      1149  TIP999      0.2052
 22360 OH2        -23.8200    11.7550    32.1590 O.3    1150  TIP1000    -0.4105
 22361 H1         -24.5980    11.2920    32.4710 H      1150  TIP1000     0.2052
 22362 H2         -23.9540    12.6620    32.4340 H      1150  TIP1000     0.2052
 22363 OH2         -7.1800    -8.1090   -46.5850 O.3    1151  TIP1001    -0.4105
 22364 H1          -7.8800    -8.7440   -46.4340 H      1151  TIP1001     0.2052
 22365 H2          -6.4500    -8.4250   -46.0530 H      1151  TIP1001     0.2052
 22366 OH2          3.1950   -10.5800    49.6950 O.3    1152  TIP1002    -0.4105
 22367 H1           3.0500   -10.4180    50.6270 H      1152  TIP1002     0.2052
 22368 H2           3.3810   -11.5180    49.6410 H      1152  TIP1002     0.2052
 22369 OH2         14.1200    30.0570   -46.0300 O.3    1153  TIP1003    -0.4105
 22370 H1          13.8870    30.8990   -45.6400 H      1153  TIP1003     0.2052
 22371 H2          14.2730    29.4800   -45.2820 H      1153  TIP1003     0.2052
 22372 OH2         29.0180   -10.9790   -41.3100 O.3    1154  TIP1004    -0.4105
 22373 H1          29.7300   -11.5310   -40.9870 H      1154  TIP1004     0.2052
 22374 H2          29.0690   -11.0560   -42.2630 H      1154  TIP1004     0.2052
 22375 OH2        -27.0650   -32.6280   -44.5870 O.3    1155  TIP1005    -0.4105
 22376 H1         -27.8650   -32.9660   -44.1850 H      1155  TIP1005     0.2052
 22377 H2         -26.9400   -31.7670   -44.1880 H      1155  TIP1005     0.2052
 22378 OH2         16.8540    15.4210   -53.6990 O.3    1156  TIP1006    -0.4105
 22379 H1          17.8060    15.4010   -53.6060 H      1156  TIP1006     0.2052
 22380 H2          16.5390    15.7790   -52.8680 H      1156  TIP1006     0.2052
 22381 OH2         30.4660   -20.1830   -52.0460 O.3    1157  TIP1007    -0.4105
 22382 H1          29.6150   -20.0150   -52.4510 H      1157  TIP1007     0.2052
 22383 H2          30.6270   -21.1140   -52.2020 H      1157  TIP1007     0.2052
 22384 OH2         26.3400   -17.1450   -53.2070 O.3    1158  TIP1008    -0.4105
 22385 H1          25.6700   -16.4610   -53.2020 H      1158  TIP1008     0.2052
 22386 H2          27.1220   -16.7180   -52.8590 H      1158  TIP1008     0.2052
 22387 OH2         -5.2430     9.8290   -38.0700 O.3    1159  TIP1009    -0.4105
 22388 H1          -5.6930     9.8730   -38.9140 H      1159  TIP1009     0.2052
 22389 H2          -5.8870     9.4450   -37.4750 H      1159  TIP1009     0.2052
 22390 OH2          8.0410     4.0110    26.5240 O.3    1160  TIP1010    -0.4105
 22391 H1           7.1020     3.8630    26.6370 H      1160  TIP1010     0.2052
 22392 H2           8.4480     3.1890    26.7980 H      1160  TIP1010     0.2052
 22393 OH2         -9.4340    31.0810    19.2240 O.3    1161  TIP1011    -0.4105
 22394 H1          -9.7380    31.9280    18.8980 H      1161  TIP1011     0.2052
 22395 H2         -10.0440    30.4460    18.8460 H      1161  TIP1011     0.2052
 22396 OH2         -8.1060    -4.5000    43.4900 O.3    1162  TIP1012    -0.4105
 22397 H1          -8.2050    -4.0630    42.6440 H      1162  TIP1012     0.2052
 22398 H2          -7.1850    -4.7560    43.5210 H      1162  TIP1012     0.2052
 22399 OH2         -9.7330     7.3270    38.0390 O.3    1163  TIP1013    -0.4105
 22400 H1         -10.0640     6.4680    37.7740 H      1163  TIP1013     0.2052
 22401 H2         -10.5000     7.7830    38.3850 H      1163  TIP1013     0.2052
 22402 OH2        -26.9510     8.8320    52.0220 O.3    1164  TIP1014    -0.4105
 22403 H1         -26.4860     8.0720    51.6720 H      1164  TIP1014     0.2052
 22404 H2         -26.8440     9.5080    51.3520 H      1164  TIP1014     0.2052
 22405 OH2         21.6930   -30.2050    34.7400 O.3    1165  TIP1015    -0.4105
 22406 H1          21.6140   -31.0270    34.2550 H      1165  TIP1015     0.2052
 22407 H2          21.1310   -29.5920    34.2660 H      1165  TIP1015     0.2052
 22408 OH2        -13.9530    -9.2610    51.2910 O.3    1166  TIP1016    -0.4105
 22409 H1         -13.0310    -9.5020    51.3820 H      1166  TIP1016     0.2052
 22410 H2         -14.2240    -9.0120    52.1750 H      1166  TIP1016     0.2052
 22411 OH2         17.8560   -13.0470   -40.7840 O.3    1167  TIP1017    -0.4105
 22412 H1          18.3370   -12.7010   -41.5360 H      1167  TIP1017     0.2052
 22413 H2          17.7140   -13.9700   -40.9950 H      1167  TIP1017     0.2052
 22414 OH2          1.4910    11.0760   -54.2240 O.3    1168  TIP1018    -0.4105
 22415 H1           0.6480    10.9330   -54.6560 H      1168  TIP1018     0.2052
 22416 H2           1.5680    12.0270   -54.1560 H      1168  TIP1018     0.2052
 22417 OH2          5.2720    -4.9960   -29.4580 O.3    1169  TIP1019    -0.4105
 22418 H1           5.5660    -5.4310   -28.6580 H      1169  TIP1019     0.2052
 22419 H2           4.7620    -4.2470   -29.1500 H      1169  TIP1019     0.2052
 22420 OH2         27.4780    -7.2490   -22.7750 O.3    1170  TIP1020    -0.4105
 22421 H1          27.3370    -7.8010   -23.5440 H      1170  TIP1020     0.2052
 22422 H2          26.8380    -7.5610   -22.1360 H      1170  TIP1020     0.2052
 22423 OH2        -22.1620    -0.1830    55.1600 O.3    1171  TIP1021    -0.4105
 22424 H1         -21.9400    -0.7810    54.4460 H      1171  TIP1021     0.2052
 22425 H2         -23.1100    -0.2740    55.2630 H      1171  TIP1021     0.2052
 22426 OH2         -7.8260    31.5670    22.6620 O.3    1172  TIP1022    -0.4105
 22427 H1          -7.6500    31.6370    21.7240 H      1172  TIP1022     0.2052
 22428 H2          -7.4760    32.3770    23.0330 H      1172  TIP1022     0.2052
 22429 OH2        -15.8430   -19.1400    52.3680 O.3    1173  TIP1023    -0.4105
 22430 H1         -16.7150   -18.9150    52.0410 H      1173  TIP1023     0.2052
 22431 H2         -15.6630   -20.0030    51.9970 H      1173  TIP1023     0.2052
 22432 OH2        -31.0180   -30.9950    36.2110 O.3    1174  TIP1024    -0.4105
 22433 H1         -30.9460   -30.8910    35.2620 H      1174  TIP1024     0.2052
 22434 H2         -31.7200   -31.6350    36.3300 H      1174  TIP1024     0.2052
 22435 OH2         30.4120     7.8820    50.1310 O.3    1175  TIP1025    -0.4105
 22436 H1          30.7520     8.7690    50.0110 H      1175  TIP1025     0.2052
 22437 H2          29.4740     7.9600    49.9580 H      1175  TIP1025     0.2052
 22438 OH2         -8.6190    21.7260   -23.4150 O.3    1176  TIP1026    -0.4105
 22439 H1          -8.1800    22.2160   -22.7200 H      1176  TIP1026     0.2052
 22440 H2          -9.0490    21.0000   -22.9630 H      1176  TIP1026     0.2052
 22441 OH2         15.9970    10.1310   -38.3370 O.3    1177  TIP1027    -0.4105
 22442 H1          16.4980     9.8020   -39.0830 H      1177  TIP1027     0.2052
 22443 H2          15.0820    10.0160   -38.5920 H      1177  TIP1027     0.2052
 22444 OH2         -9.5980    -9.8300   -49.1860 O.3    1178  TIP1028    -0.4105
 22445 H1          -9.9280    -9.9880   -48.3020 H      1178  TIP1028     0.2052
 22446 H2          -9.9220    -8.9580   -49.4120 H      1178  TIP1028     0.2052
 22447 OH2          2.2630   -31.6170    42.6490 O.3    1179  TIP1029    -0.4105
 22448 H1           1.6120   -31.6610    43.3500 H      1179  TIP1029     0.2052
 22449 H2           2.1740   -32.4500    42.1870 H      1179  TIP1029     0.2052
 22450 OH2        -19.1330   -21.6780    25.4440 O.3    1180  TIP1030    -0.4105
 22451 H1         -19.5330   -21.6410    24.5750 H      1180  TIP1030     0.2052
 22452 H2         -18.3020   -22.1320    25.3060 H      1180  TIP1030     0.2052
 22453 OH2         18.2680     9.2310    30.3260 O.3    1181  TIP1031    -0.4105
 22454 H1          17.7280     8.5540    30.7340 H      1181  TIP1031     0.2052
 22455 H2          19.1220     8.8160    30.2030 H      1181  TIP1031     0.2052
 22456 OH2         26.4560    32.0900   -55.2250 O.3    1182  TIP1032    -0.4105
 22457 H1          27.0090    32.8030   -55.5460 H      1182  TIP1032     0.2052
 22458 H2          25.5610    32.4050   -55.3530 H      1182  TIP1032     0.2052
 22459 OH2         21.9470    18.1750   -50.5390 O.3    1183  TIP1033    -0.4105
 22460 H1          22.7290    18.6180   -50.8710 H      1183  TIP1033     0.2052
 22461 H2          21.2760    18.8580   -50.5180 H      1183  TIP1033     0.2052
 22462 OH2        -31.9320   -30.0650   -26.6240 O.3    1184  TIP1034    -0.4105
 22463 H1         -31.4900   -30.4180   -27.3970 H      1184  TIP1034     0.2052
 22464 H2         -31.2490   -30.0250   -25.9540 H      1184  TIP1034     0.2052
 22465 OH2         19.3320    21.7910   -32.4700 O.3    1185  TIP1035    -0.4105
 22466 H1          19.3990    22.7450   -32.5080 H      1185  TIP1035     0.2052
 22467 H2          19.1620    21.5980   -31.5480 H      1185  TIP1035     0.2052
 22468 OH2        -23.4640    -7.0510   -49.4300 O.3    1186  TIP1036    -0.4105
 22469 H1         -23.4740    -7.8390   -49.9740 H      1186  TIP1036     0.2052
 22470 H2         -24.0750    -6.4540   -49.8620 H      1186  TIP1036     0.2052
 22471 OH2         14.8750   -30.9530    45.4290 O.3    1187  TIP1037    -0.4105
 22472 H1          15.2690   -30.0860    45.3370 H      1187  TIP1037     0.2052
 22473 H2          14.8010   -31.2800    44.5320 H      1187  TIP1037     0.2052
 22474 OH2        -23.0320    17.9810   -49.2180 O.3    1188  TIP1038    -0.4105
 22475 H1         -23.7980    17.4590   -48.9790 H      1188  TIP1038     0.2052
 22476 H2         -23.2370    18.3230   -50.0880 H      1188  TIP1038     0.2052
 22477 OH2        -20.1890   -30.9850   -36.5350 O.3    1189  TIP1039    -0.4105
 22478 H1         -20.0340   -30.5340   -37.3640 H      1189  TIP1039     0.2052
 22479 H2         -20.4400   -30.2900   -35.9270 H      1189  TIP1039     0.2052
 22480 OH2        -27.2080     8.8110   -23.1770 O.3    1190  TIP1040    -0.4105
 22481 H1         -27.7720     8.8940   -22.4080 H      1190  TIP1040     0.2052
 22482 H2         -27.7810     8.4560   -23.8580 H      1190  TIP1040     0.2052
 22483 OH2         25.9370   -24.2320    45.5420 O.3    1191  TIP1041    -0.4105
 22484 H1          25.2860   -23.6240    45.8920 H      1191  TIP1041     0.2052
 22485 H2          25.7920   -24.2200    44.5960 H      1191  TIP1041     0.2052
 22486 OH2         20.1240   -22.9720   -53.7570 O.3    1192  TIP1042    -0.4105
 22487 H1          19.8540   -22.1030   -54.0530 H      1192  TIP1042     0.2052
 22488 H2          20.9610   -22.8260   -53.3160 H      1192  TIP1042     0.2052
 22489 OH2        -13.4380    -3.7700    40.9940 O.3    1193  TIP1043    -0.4105
 22490 H1         -13.5640    -4.6480    40.6340 H      1193  TIP1043     0.2052
 22491 H2         -14.2390    -3.5950    41.4870 H      1193  TIP1043     0.2052
 22492 OH2        -13.9030    20.9770   -34.8360 O.3    1194  TIP1044    -0.4105
 22493 H1         -14.2710    20.5970   -35.6340 H      1194  TIP1044     0.2052
 22494 H2         -14.6210    21.4860   -34.4600 H      1194  TIP1044     0.2052
 22495 OH2          8.0370   -22.2050    49.9920 O.3    1195  TIP1045    -0.4105
 22496 H1           8.9590   -22.4550    49.9310 H      1195  TIP1045     0.2052
 22497 H2           7.6040   -22.9730    50.3660 H      1195  TIP1045     0.2052
 22498 OH2         13.7700   -32.2150    50.9160 O.3    1196  TIP1046    -0.4105
 22499 H1          13.7180   -32.9040    50.2550 H      1196  TIP1046     0.2052
 22500 H2          14.5960   -31.7670    50.7310 H      1196  TIP1046     0.2052
 22501 OH2         -0.0590    -0.9700   -49.6040 O.3    1197  TIP1047    -0.4105
 22502 H1          -0.0320    -1.7510   -50.1570 H      1197  TIP1047     0.2052
 22503 H2           0.8040    -0.9390   -49.1900 H      1197  TIP1047     0.2052
 22504 OH2         11.7100     9.3050   -32.0130 O.3    1198  TIP1048    -0.4105
 22505 H1          10.9660     9.0150   -32.5400 H      1198  TIP1048     0.2052
 22506 H2          11.3530     9.4100   -31.1310 H      1198  TIP1048     0.2052
 22507 OH2         15.1990    25.5010    49.4120 O.3    1199  TIP1049    -0.4105
 22508 H1          14.8750    25.1160    50.2260 H      1199  TIP1049     0.2052
 22509 H2          15.3530    26.4210    49.6250 H      1199  TIP1049     0.2052
 22510 OH2         15.6110   -30.3940    26.3500 O.3    1200  TIP1050    -0.4105
 22511 H1          15.7660   -29.8320    27.1090 H      1200  TIP1050     0.2052
 22512 H2          16.0420   -29.9410    25.6240 H      1200  TIP1050     0.2052
 22513 OH2         10.6310     4.9140    41.1670 O.3    1201  TIP1051    -0.4105
 22514 H1          10.3940     4.0070    40.9720 H      1201  TIP1051     0.2052
 22515 H2          10.2840     5.0690    42.0450 H      1201  TIP1051     0.2052
 22516 OH2          0.4970    -6.0510   -39.1430 O.3    1202  TIP1052    -0.4105
 22517 H1           0.4590    -6.9540   -39.4580 H      1202  TIP1052     0.2052
 22518 H2           1.0840    -5.6080   -39.7550 H      1202  TIP1052     0.2052
 22519 OH2          4.1260   -28.2850    35.1380 O.3    1203  TIP1053    -0.4105
 22520 H1           5.0250   -27.9730    35.2430 H      1203  TIP1053     0.2052
 22521 H2           3.9750   -28.2660    34.1930 H      1203  TIP1053     0.2052
 22522 OH2         25.3800    -1.5540   -42.5580 O.3    1204  TIP1054    -0.4105
 22523 H1          26.0200    -2.0460   -42.0440 H      1204  TIP1054     0.2052
 22524 H2          25.0480    -0.8890   -41.9550 H      1204  TIP1054     0.2052
 22525 OH2        -32.2040   -29.0940   -21.0270 O.3    1205  TIP1055    -0.4105
 22526 H1         -31.6130   -29.5920   -21.5920 H      1205  TIP1055     0.2052
 22527 H2         -31.6710   -28.3690   -20.7020 H      1205  TIP1055     0.2052
 22528 OH2        -26.1200    -6.2510   -24.1370 O.3    1206  TIP1056    -0.4105
 22529 H1         -26.0130    -6.2200   -23.1860 H      1206  TIP1056     0.2052
 22530 H2         -25.2380    -6.4130   -24.4720 H      1206  TIP1056     0.2052
 22531 OH2        -19.0790    17.9410   -46.2510 O.3    1207  TIP1057    -0.4105
 22532 H1         -19.5550    17.5090   -46.9600 H      1207  TIP1057     0.2052
 22533 H2         -18.5870    18.6400   -46.6820 H      1207  TIP1057     0.2052
 22534 OH2         -0.4640    15.9970    34.8220 O.3    1208  TIP1058    -0.4105
 22535 H1           0.3690    16.4660    34.8750 H      1208  TIP1058     0.2052
 22536 H2          -1.1180    16.6840    34.6940 H      1208  TIP1058     0.2052
 22537 OH2         15.0850    20.5390    25.4480 O.3    1209  TIP1059    -0.4105
 22538 H1          15.4500    19.9790    24.7630 H      1209  TIP1059     0.2052
 22539 H2          15.7340    21.2340    25.5610 H      1209  TIP1059     0.2052
 22540 OH2        -18.8830     4.1360   -30.3710 O.3    1210  TIP1060    -0.4105
 22541 H1         -19.2990     3.4300   -29.8760 H      1210  TIP1060     0.2052
 22542 H2         -19.4730     4.2920   -31.1090 H      1210  TIP1060     0.2052
 22543 OH2         -3.2530    21.7750   -38.0270 O.3    1211  TIP1061    -0.4105
 22544 H1          -2.8790    22.3200   -37.3350 H      1211  TIP1061     0.2052
 22545 H2          -2.8040    22.0570   -38.8240 H      1211  TIP1061     0.2052
 22546 OH2          5.0070   -18.1040   -32.5260 O.3    1212  TIP1062    -0.4105
 22547 H1           4.1690   -18.3970   -32.1680 H      1212  TIP1062     0.2052
 22548 H2           5.2370   -18.7690   -33.1750 H      1212  TIP1062     0.2052
 22549 OH2          8.9080     1.9850   -54.2380 O.3    1213  TIP1063    -0.4105
 22550 H1           9.1500     2.8820   -54.4690 H      1213  TIP1063     0.2052
 22551 H2           9.6700     1.4600   -54.4850 H      1213  TIP1063     0.2052
 22552 OH2        -30.7540    22.8830   -32.3970 O.3    1214  TIP1064    -0.4105
 22553 H1         -31.3310    22.8110   -31.6360 H      1214  TIP1064     0.2052
 22554 H2         -30.0130    23.4040   -32.0880 H      1214  TIP1064     0.2052
 22555 OH2         24.7410     4.3520   -22.1070 O.3    1215  TIP1065    -0.4105
 22556 H1          25.3360     4.5900   -21.3960 H      1215  TIP1065     0.2052
 22557 H2          24.7220     5.1230   -22.6730 H      1215  TIP1065     0.2052
 22558 OH2         31.8900    -2.3680   -30.7530 O.3    1216  TIP1066    -0.4105
 22559 H1          31.1580    -1.7530   -30.7050 H      1216  TIP1066     0.2052
 22560 H2          32.4630    -2.0050   -31.4290 H      1216  TIP1066     0.2052
 22561 OH2         19.0810    11.6000   -48.1310 O.3    1217  TIP1067    -0.4105
 22562 H1          19.4240    10.7570   -48.4270 H      1217  TIP1067     0.2052
 22563 H2          19.7990    11.9890   -47.6310 H      1217  TIP1067     0.2052
 22564 OH2         13.5050    -1.6810   -51.4570 O.3    1218  TIP1068    -0.4105
 22565 H1          13.4170    -1.4490   -50.5330 H      1218  TIP1068     0.2052
 22566 H2          14.0880    -1.0120   -51.8180 H      1218  TIP1068     0.2052
 22567 OH2         -8.9750   -11.6720   -32.1790 O.3    1219  TIP1069    -0.4105
 22568 H1          -9.2930   -12.4030   -31.6500 H      1219  TIP1069     0.2052
 22569 H2          -8.0870   -11.5130   -31.8600 H      1219  TIP1069     0.2052
 22570 OH2        -27.1950    17.4590   -34.3080 O.3    1220  TIP1070    -0.4105
 22571 H1         -26.6960    16.9230   -34.9250 H      1220  TIP1070     0.2052
 22572 H2         -27.9040    17.8320   -34.8320 H      1220  TIP1070     0.2052
 22573 OH2         26.7940   -14.0040    51.5240 O.3    1221  TIP1071    -0.4105
 22574 H1          26.2720   -14.3140    52.2630 H      1221  TIP1071     0.2052
 22575 H2          27.4270   -13.4010    51.9130 H      1221  TIP1071     0.2052
 22576 OH2          0.3100   -17.8150   -42.4560 O.3    1222  TIP1072    -0.4105
 22577 H1          -0.3580   -18.0510   -43.1000 H      1222  TIP1072     0.2052
 22578 H2           0.2590   -18.5050   -41.7940 H      1222  TIP1072     0.2052
 22579 OH2          5.9150   -21.8790   -22.5080 O.3    1223  TIP1073    -0.4105
 22580 H1           5.2680   -21.9320   -21.8040 H      1223  TIP1073     0.2052
 22581 H2           5.4170   -21.5800   -23.2690 H      1223  TIP1073     0.2052
 22582 OH2         14.1680     0.4250    43.9450 O.3    1224  TIP1074    -0.4105
 22583 H1          14.2170    -0.4300    43.5170 H      1224  TIP1074     0.2052
 22584 H2          14.3730     0.2460    44.8630 H      1224  TIP1074     0.2052
 22585 OH2         17.4570     9.9750    26.4300 O.3    1225  TIP1075    -0.4105
 22586 H1          18.3100     9.9640    26.8640 H      1225  TIP1075     0.2052
 22587 H2          17.5600     9.3860    25.6820 H      1225  TIP1075     0.2052
 22588 OH2        -21.5960   -25.4880   -39.2260 O.3    1226  TIP1076    -0.4105
 22589 H1         -20.6920   -25.7260   -39.4300 H      1226  TIP1076     0.2052
 22590 H2         -21.8960   -26.1730   -38.6300 H      1226  TIP1076     0.2052
 22591 OH2        -25.3920   -12.4140   -42.8930 O.3    1227  TIP1077    -0.4105
 22592 H1         -25.5670   -13.2100   -42.3910 H      1227  TIP1077     0.2052
 22593 H2         -24.9030   -12.7160   -43.6590 H      1227  TIP1077     0.2052
 22594 OH2         21.0420    21.0780    33.4560 O.3    1228  TIP1078    -0.4105
 22595 H1          20.3090    21.6300    33.7290 H      1228  TIP1078     0.2052
 22596 H2          20.7670    20.7120    32.6150 H      1228  TIP1078     0.2052
 22597 OH2          3.1590    -7.3630   -24.5680 O.3    1229  TIP1079    -0.4105
 22598 H1           2.4740    -7.9770   -24.3020 H      1229  TIP1079     0.2052
 22599 H2           3.2610    -6.7790   -23.8160 H      1229  TIP1079     0.2052
 22600 OH2        -26.6790   -12.2570   -37.8850 O.3    1230  TIP1080    -0.4105
 22601 H1         -26.6540   -11.3330   -38.1340 H      1230  TIP1080     0.2052
 22602 H2         -27.5990   -12.4270   -37.6850 H      1230  TIP1080     0.2052
 22603 OH2         15.1190   -29.4730    42.7010 O.3    1231  TIP1081    -0.4105
 22604 H1          14.8340   -30.3500    42.4430 H      1231  TIP1081     0.2052
 22605 H2          15.8280   -29.2630    42.0930 H      1231  TIP1081     0.2052
 22606 OH2          1.2520   -27.3360    24.9040 O.3    1232  TIP1082    -0.4105
 22607 H1           1.4680   -26.6290    24.2950 H      1232  TIP1082     0.2052
 22608 H2           0.4940   -27.7670    24.5110 H      1232  TIP1082     0.2052
 22609 OH2         28.7750    16.1560    51.4220 O.3    1233  TIP1083    -0.4105
 22610 H1          28.2440    15.8630    50.6810 H      1233  TIP1083     0.2052
 22611 H2          28.1390    16.3510    52.1110 H      1233  TIP1083     0.2052
 22612 OH2        -27.9250    -7.6960   -20.0960 O.3    1234  TIP1084    -0.4105
 22613 H1         -28.1360    -8.3580   -19.4380 H      1234  TIP1084     0.2052
 22614 H2         -27.1370    -7.2680   -19.7610 H      1234  TIP1084     0.2052
 22615 OH2         28.9460   -16.3820    55.1060 O.3    1235  TIP1085    -0.4105
 22616 H1          29.5720   -15.8400    54.6270 H      1235  TIP1085     0.2052
 22617 H2          28.5380   -15.7830    55.7310 H      1235  TIP1085     0.2052
 22618 OH2        -11.7780    -6.4600   -25.3190 O.3    1236  TIP1086    -0.4105
 22619 H1         -11.1340    -6.1170   -24.7000 H      1236  TIP1086     0.2052
 22620 H2         -12.5440    -5.8970   -25.2040 H      1236  TIP1086     0.2052
 22621 OH2          0.0320   -25.7560   -47.4050 O.3    1237  TIP1087    -0.4105
 22622 H1           0.1380   -26.4220   -46.7260 H      1237  TIP1087     0.2052
 22623 H2           0.8760   -25.7350   -47.8540 H      1237  TIP1087     0.2052
 22624 OH2         15.2170    27.5320   -37.0790 O.3    1238  TIP1088    -0.4105
 22625 H1          15.3270    27.5850   -36.1300 H      1238  TIP1088     0.2052
 22626 H2          15.8890    28.1150   -37.4320 H      1238  TIP1088     0.2052
 22627 OH2          2.2970    16.0330    45.6820 O.3    1239  TIP1089    -0.4105
 22628 H1           2.2320    15.2460    45.1390 H      1239  TIP1089     0.2052
 22629 H2           2.2260    16.7580    45.0620 H      1239  TIP1089     0.2052
 22630 OH2         13.4090     9.5450    54.7510 O.3    1240  TIP1090    -0.4105
 22631 H1          13.9070     9.1880    54.0160 H      1240  TIP1090     0.2052
 22632 H2          12.7140     8.9050    54.9040 H      1240  TIP1090     0.2052
 22633 OH2         17.7070    13.8980   -29.5460 O.3    1241  TIP1091    -0.4105
 22634 H1          18.3130    13.4380   -28.9660 H      1241  TIP1091     0.2052
 22635 H2          17.3620    13.2160   -30.1220 H      1241  TIP1091     0.2052
 22636 OH2         14.7790    13.2270   -41.1090 O.3    1242  TIP1092    -0.4105
 22637 H1          14.3810    13.5220   -41.9280 H      1242  TIP1092     0.2052
 22638 H2          15.0790    14.0310   -40.6850 H      1242  TIP1092     0.2052
 22639 OH2        -31.5470    14.0990    45.1250 O.3    1243  TIP1093    -0.4105
 22640 H1         -31.4810    13.5060    45.8740 H      1243  TIP1093     0.2052
 22641 H2         -30.7790    14.6650    45.1980 H      1243  TIP1093     0.2052
 22642 OH2         -3.9210    -2.1600   -32.9640 O.3    1244  TIP1094    -0.4105
 22643 H1          -3.1320    -2.6480   -32.7270 H      1244  TIP1094     0.2052
 22644 H2          -4.4620    -2.1800   -32.1750 H      1244  TIP1094     0.2052
 22645 OH2         11.2580     4.0730   -26.8640 O.3    1245  TIP1095    -0.4105
 22646 H1          11.8930     4.7660   -27.0470 H      1245  TIP1095     0.2052
 22647 H2          11.6410     3.5840   -26.1360 H      1245  TIP1095     0.2052
 22648 OH2        -28.0950     2.9670   -50.1130 O.3    1246  TIP1096    -0.4105
 22649 H1         -28.6090     2.2890   -49.6740 H      1246  TIP1096     0.2052
 22650 H2         -28.6730     3.7290   -50.1380 H      1246  TIP1096     0.2052
 22651 OH2          1.4580    -5.0120    44.6130 O.3    1247  TIP1097    -0.4105
 22652 H1           2.3040    -5.3260    44.2930 H      1247  TIP1097     0.2052
 22653 H2           1.3380    -5.4590    45.4510 H      1247  TIP1097     0.2052
 22654 OH2        -27.3080    16.8500    53.0880 O.3    1248  TIP1098    -0.4105
 22655 H1         -26.6420    17.2410    52.5220 H      1248  TIP1098     0.2052
 22656 H2         -28.1200    16.9180    52.5850 H      1248  TIP1098     0.2052
 22657 OH2        -29.6330    -1.3950    44.7080 O.3    1249  TIP1099    -0.4105
 22658 H1         -30.1310    -0.6980    44.2810 H      1249  TIP1099     0.2052
 22659 H2         -29.3040    -0.9950    45.5130 H      1249  TIP1099     0.2052
 22660 OH2          5.2180   -10.9830   -47.1490 O.3    1250  TIP1100    -0.4105
 22661 H1           4.3560   -10.7620   -47.5010 H      1250  TIP1100     0.2052
 22662 H2           5.0360   -11.3830   -46.2990 H      1250  TIP1100     0.2052
 22663 OH2         25.4720    16.8530    50.1930 O.3    1251  TIP1101    -0.4105
 22664 H1          25.0470    17.6510    50.5100 H      1251  TIP1101     0.2052
 22665 H2          25.0620    16.6850    49.3440 H      1251  TIP1101     0.2052
 22666 OH2          0.0160    30.3430   -42.7580 O.3    1252  TIP1102    -0.4105
 22667 H1          -0.3770    31.2010   -42.9220 H      1252  TIP1102     0.2052
 22668 H2           0.5490    30.4690   -41.9720 H      1252  TIP1102     0.2052
 22669 OH2        -31.6810    16.3340    53.9010 O.3    1253  TIP1103    -0.4105
 22670 H1         -32.3610    15.7220    54.1830 H      1253  TIP1103     0.2052
 22671 H2         -31.9760    17.1860    54.2240 H      1253  TIP1103     0.2052
 22672 OH2          3.7580   -27.8730   -44.8070 O.3    1254  TIP1104    -0.4105
 22673 H1           4.3270   -27.6760   -44.0630 H      1254  TIP1104     0.2052
 22674 H2           2.9500   -28.1990   -44.4120 H      1254  TIP1104     0.2052
 22675 OH2        -26.8180    29.9020   -54.1580 O.3    1255  TIP1105    -0.4105
 22676 H1         -27.7140    30.1250   -53.9080 H      1255  TIP1105     0.2052
 22677 H2         -26.8340    29.8760   -55.1150 H      1255  TIP1105     0.2052
 22678 OH2         12.0290     1.5080   -31.3930 O.3    1256  TIP1106    -0.4105
 22679 H1          12.5200     0.7960   -30.9830 H      1256  TIP1106     0.2052
 22680 H2          11.8560     2.1220   -30.6800 H      1256  TIP1106     0.2052
 22681 OH2         21.2050    26.8130    28.1610 O.3    1257  TIP1107    -0.4105
 22682 H1          20.5530    26.7190    28.8550 H      1257  TIP1107     0.2052
 22683 H2          20.8250    26.3580    27.4110 H      1257  TIP1107     0.2052
 22684 OH2        -23.0210   -25.1020   -53.4660 O.3    1258  TIP1108    -0.4105
 22685 H1         -23.2200   -25.2960   -52.5500 H      1258  TIP1108     0.2052
 22686 H2         -22.1170   -25.3920   -53.5820 H      1258  TIP1108     0.2052
 22687 OH2        -15.4630     6.3930    38.0900 O.3    1259  TIP1109    -0.4105
 22688 H1         -14.7040     5.8470    37.8850 H      1259  TIP1109     0.2052
 22689 H2         -15.9680     6.4150    37.2770 H      1259  TIP1109     0.2052
 22690 OH2        -19.3110     6.0710    24.3280 O.3    1260  TIP1110    -0.4105
 22691 H1         -19.9330     5.9830    25.0500 H      1260  TIP1110     0.2052
 22692 H2         -18.8760     5.2190    24.2810 H      1260  TIP1110     0.2052
 22693 OH2        -27.2360    22.2560   -36.7000 O.3    1261  TIP1111    -0.4105
 22694 H1         -27.7460    22.9420   -36.2690 H      1261  TIP1111     0.2052
 22695 H2         -26.3630    22.6340   -36.8010 H      1261  TIP1111     0.2052
 22696 OH2        -15.6650    -2.0530   -46.4320 O.3    1262  TIP1112    -0.4105
 22697 H1         -16.2990    -1.3930   -46.1520 H      1262  TIP1112     0.2052
 22698 H2         -16.1650    -2.6430   -46.9960 H      1262  TIP1112     0.2052
 22699 OH2        -13.5530    -4.7890   -24.1490 O.3    1263  TIP1113    -0.4105
 22700 H1         -13.0570    -4.6730   -23.3380 H      1263  TIP1113     0.2052
 22701 H2         -14.2790    -5.3630   -23.9070 H      1263  TIP1113     0.2052
 22702 OH2        -20.1920    -3.1400   -26.2510 O.3    1264  TIP1114    -0.4105
 22703 H1         -19.2500    -3.0240   -26.3770 H      1264  TIP1114     0.2052
 22704 H2         -20.2930    -3.2810   -25.3100 H      1264  TIP1114     0.2052
 22705 OH2         20.6880    33.0400    44.9720 O.3    1265  TIP1115    -0.4105
 22706 H1          20.6390    33.7160    45.6470 H      1265  TIP1115     0.2052
 22707 H2          19.8010    32.9920    44.6160 H      1265  TIP1115     0.2052
 22708 OH2        -20.8630   -13.0330    51.1470 O.3    1266  TIP1116    -0.4105
 22709 H1         -20.2420   -12.3050    51.1190 H      1266  TIP1116     0.2052
 22710 H2         -20.6550   -13.5560    50.3730 H      1266  TIP1116     0.2052
 22711 OH2        -13.8890   -17.2900    51.5600 O.3    1267  TIP1117    -0.4105
 22712 H1         -14.2400   -16.4180    51.7390 H      1267  TIP1117     0.2052
 22713 H2         -14.6050   -17.8870    51.7810 H      1267  TIP1117     0.2052
 22714 OH2        -10.1950     9.6240   -31.0590 O.3    1268  TIP1118    -0.4105
 22715 H1         -10.9840     9.5210   -30.5280 H      1268  TIP1118     0.2052
 22716 H2         -10.4700    10.1720   -31.7940 H      1268  TIP1118     0.2052
 22717 OH2        -26.1200   -21.1590   -45.7180 O.3    1269  TIP1119    -0.4105
 22718 H1         -26.5630   -20.7310   -44.9860 H      1269  TIP1119     0.2052
 22719 H2         -26.0800   -20.4890   -46.4000 H      1269  TIP1119     0.2052
 22720 OH2        -20.3550    -8.1520    40.6280 O.3    1270  TIP1120    -0.4105
 22721 H1         -20.1500    -8.0120    39.7030 H      1270  TIP1120     0.2052
 22722 H2         -20.6820    -9.0500    40.6690 H      1270  TIP1120     0.2052
 22723 OH2        -32.6210    25.4320   -44.6340 O.3    1271  TIP1121    -0.4105
 22724 H1         -32.7830    24.5000   -44.4870 H      1271  TIP1121     0.2052
 22725 H2         -31.7000    25.4780   -44.8900 H      1271  TIP1121     0.2052
 22726 OH2        -15.3110   -28.0650    53.9890 O.3    1272  TIP1122    -0.4105
 22727 H1         -15.5810   -27.6640    53.1630 H      1272  TIP1122     0.2052
 22728 H2         -14.3960   -28.3100    53.8500 H      1272  TIP1122     0.2052
 22729 OH2         21.2310    -0.1460    26.9260 O.3    1273  TIP1123    -0.4105
 22730 H1          20.7520    -0.3370    27.7320 H      1273  TIP1123     0.2052
 22731 H2          20.8770     0.6930    26.6290 H      1273  TIP1123     0.2052
 22732 OH2        -17.5630   -23.4730    44.9320 O.3    1274  TIP1124    -0.4105
 22733 H1         -18.2210   -22.9050    45.3330 H      1274  TIP1124     0.2052
 22734 H2         -17.9370   -24.3520    44.9900 H      1274  TIP1124     0.2052
 22735 OH2        -17.4170   -31.4470   -45.9970 O.3    1275  TIP1125    -0.4105
 22736 H1         -17.1360   -31.1410   -46.8590 H      1275  TIP1125     0.2052
 22737 H2         -18.1940   -31.9780   -46.1720 H      1275  TIP1125     0.2052
 22738 OH2         -3.8680     3.1490   -34.1460 O.3    1276  TIP1126    -0.4105
 22739 H1          -2.9500     3.3390   -33.9510 H      1276  TIP1126     0.2052
 22740 H2          -4.0980     2.4390   -33.5460 H      1276  TIP1126     0.2052
 22741 OH2         -9.8130    19.4840   -22.2950 O.3    1277  TIP1127    -0.4105
 22742 H1          -9.3060    19.3530   -21.4940 H      1277  TIP1127     0.2052
 22743 H2         -10.7090    19.6260   -21.9910 H      1277  TIP1127     0.2052
 22744 OH2        -11.0550     6.7940   -46.4920 O.3    1278  TIP1128    -0.4105
 22745 H1         -10.1620     6.9890   -46.7770 H      1278  TIP1128     0.2052
 22746 H2         -11.0110     5.8960   -46.1630 H      1278  TIP1128     0.2052
 22747 OH2          5.3800    -2.7930   -19.1980 O.3    1279  TIP1129    -0.4105
 22748 H1           4.6590    -2.7490   -18.5700 H      1279  TIP1129     0.2052
 22749 H2           5.2660    -2.0190   -19.7490 H      1279  TIP1129     0.2052
 22750 OH2        -19.2390   -26.0560   -27.2440 O.3    1280  TIP1130    -0.4105
 22751 H1         -18.9020   -26.9500   -27.1800 H      1280  TIP1130     0.2052
 22752 H2         -18.5220   -25.5570   -27.6370 H      1280  TIP1130     0.2052
 22753 OH2         16.9140   -26.0950   -48.7380 O.3    1281  TIP1131    -0.4105
 22754 H1          17.4250   -26.6520   -49.3250 H      1281  TIP1131     0.2052
 22755 H2          16.6310   -25.3640   -49.2870 H      1281  TIP1131     0.2052
 22756 OH2        -24.6180   -21.2230   -36.5750 O.3    1282  TIP1132    -0.4105
 22757 H1         -24.9090   -22.0480   -36.9630 H      1282  TIP1132     0.2052
 22758 H2         -23.8020   -21.0180   -37.0320 H      1282  TIP1132     0.2052
 22759 OH2        -27.6410   -19.6090    46.5780 O.3    1283  TIP1133    -0.4105
 22760 H1         -28.2120   -20.2500    46.1540 H      1283  TIP1133     0.2052
 22761 H2         -27.9330   -19.5940    47.4900 H      1283  TIP1133     0.2052
 22762 OH2          7.5610    22.9340   -31.0720 O.3    1284  TIP1134    -0.4105
 22763 H1           6.6610    22.8040   -31.3720 H      1284  TIP1134     0.2052
 22764 H2           7.9620    22.0680   -31.1330 H      1284  TIP1134     0.2052
 22765 OH2         29.6090    -5.9400    44.7490 O.3    1285  TIP1135    -0.4105
 22766 H1          29.9970    -5.4030    45.4390 H      1285  TIP1135     0.2052
 22767 H2          30.3180    -6.0750    44.1200 H      1285  TIP1135     0.2052
 22768 OH2         21.6240   -19.1800   -33.1440 O.3    1286  TIP1136    -0.4105
 22769 H1          21.1370   -18.5790   -33.7080 H      1286  TIP1136     0.2052
 22770 H2          21.2100   -19.0910   -32.2860 H      1286  TIP1136     0.2052
 22771 OH2        -22.9770    -9.7030   -30.1140 O.3    1287  TIP1137    -0.4105
 22772 H1         -22.9060   -10.1440   -29.2670 H      1287  TIP1137     0.2052
 22773 H2         -23.9160    -9.5640   -30.2340 H      1287  TIP1137     0.2052
 22774 OH2         12.6870    -8.6180   -53.2110 O.3    1288  TIP1138    -0.4105
 22775 H1          12.8730    -9.4280   -52.7370 H      1288  TIP1138     0.2052
 22776 H2          12.1800    -8.0900   -52.5950 H      1288  TIP1138     0.2052
 22777 OH2        -33.0220    -1.6620   -19.6850 O.3    1289  TIP1139    -0.4105
 22778 H1         -33.8990    -1.9080   -19.3890 H      1289  TIP1139     0.2052
 22779 H2         -32.4750    -1.7360   -18.9030 H      1289  TIP1139     0.2052
 22780 OH2        -20.7230   -10.0820   -38.7510 O.3    1290  TIP1140    -0.4105
 22781 H1         -20.5610    -9.4540   -39.4550 H      1290  TIP1140     0.2052
 22782 H2         -20.3020   -10.8880   -39.0470 H      1290  TIP1140     0.2052
 22783 OH2         16.0380   -19.1550    41.8660 O.3    1291  TIP1141    -0.4105
 22784 H1          16.4820   -19.9960    41.9730 H      1291  TIP1141     0.2052
 22785 H2          16.7400   -18.5390    41.6550 H      1291  TIP1141     0.2052
 22786 OH2         -2.4180   -25.4080    30.2970 O.3    1292  TIP1142    -0.4105
 22787 H1          -2.9680   -24.8870    30.8820 H      1292  TIP1142     0.2052
 22788 H2          -2.7200   -25.1810    29.4180 H      1292  TIP1142     0.2052
 22789 OH2         23.9430    23.7130   -30.4190 O.3    1293  TIP1143    -0.4105
 22790 H1          23.1290    24.2150   -30.4540 H      1293  TIP1143     0.2052
 22791 H2          24.5230    24.1530   -31.0400 H      1293  TIP1143     0.2052
 22792 OH2         -6.3030    -7.4160    39.1520 O.3    1294  TIP1144    -0.4105
 22793 H1          -6.6430    -6.5830    38.8260 H      1294  TIP1144     0.2052
 22794 H2          -5.8970    -7.1980    39.9910 H      1294  TIP1144     0.2052
 22795 OH2         27.5310    -9.6900   -29.4640 O.3    1295  TIP1145    -0.4105
 22796 H1          27.0160    -9.2610   -30.1470 H      1295  TIP1145     0.2052
 22797 H2          27.2350    -9.2850   -28.6500 H      1295  TIP1145     0.2052
 22798 OH2          3.8000    25.6680    46.4410 O.3    1296  TIP1146    -0.4105
 22799 H1           3.9290    26.6080    46.3160 H      1296  TIP1146     0.2052
 22800 H2           4.6650    25.2860    46.2940 H      1296  TIP1146     0.2052
 22801 OH2         23.5740    30.3280   -29.5680 O.3    1297  TIP1147    -0.4105
 22802 H1          23.0830    29.7930   -28.9440 H      1297  TIP1147     0.2052
 22803 H2          22.9250    30.9320   -29.9290 H      1297  TIP1147     0.2052
 22804 OH2         -9.7570    15.0330    35.8860 O.3    1298  TIP1148    -0.4105
 22805 H1          -9.5940    15.2670    36.8000 H      1298  TIP1148     0.2052
 22806 H2          -9.6240    14.0860    35.8530 H      1298  TIP1148     0.2052
 22807 OH2          1.5510     5.8330    54.5710 O.3    1299  TIP1149    -0.4105
 22808 H1           1.9990     5.3260    55.2490 H      1299  TIP1149     0.2052
 22809 H2           2.2560     6.1640    54.0140 H      1299  TIP1149     0.2052
 22810 OH2          0.7590    -8.3920   -40.3350 O.3    1300  TIP1150    -0.4105
 22811 H1           1.5390    -8.0110   -40.7390 H      1300  TIP1150     0.2052
 22812 H2           0.7510    -9.3000   -40.6380 H      1300  TIP1150     0.2052
 22813 OH2         27.3940   -14.3720   -54.6930 O.3    1301  TIP1151    -0.4105
 22814 H1          26.4690   -14.6150   -54.7210 H      1301  TIP1151     0.2052
 22815 H2          27.4480   -13.5740   -55.2180 H      1301  TIP1151     0.2052
 22816 OH2          1.4160   -12.7600   -54.5310 O.3    1302  TIP1152    -0.4105
 22817 H1           1.0230   -12.8630   -55.3980 H      1302  TIP1152     0.2052
 22818 H2           2.3520   -12.6610   -54.7020 H      1302  TIP1152     0.2052
 22819 OH2         20.5000    29.7130   -37.0670 O.3    1303  TIP1153    -0.4105
 22820 H1          20.8400    29.9550   -36.2050 H      1303  TIP1153     0.2052
 22821 H2          20.2790    30.5480   -37.4800 H      1303  TIP1153     0.2052
 22822 OH2         -5.8460    -4.0980   -44.5020 O.3    1304  TIP1154    -0.4105
 22823 H1          -6.5860    -4.4970   -44.9600 H      1304  TIP1154     0.2052
 22824 H2          -5.2000    -3.9320   -45.1890 H      1304  TIP1154     0.2052
 22825 OH2         26.5750   -11.3700    38.7230 O.3    1305  TIP1155    -0.4105
 22826 H1          26.2400   -10.7450    38.0790 H      1305  TIP1155     0.2052
 22827 H2          27.3180   -11.7880    38.2870 H      1305  TIP1155     0.2052
 22828 OH2         -7.6220     4.7340    34.5050 O.3    1306  TIP1156    -0.4105
 22829 H1          -7.5490     5.2770    35.2890 H      1306  TIP1156     0.2052
 22830 H2          -6.9890     4.0290    34.6410 H      1306  TIP1156     0.2052
 22831 OH2        -11.8460   -15.1060    37.6770 O.3    1307  TIP1157    -0.4105
 22832 H1         -11.6390   -16.0390    37.6250 H      1307  TIP1157     0.2052
 22833 H2         -11.0020   -14.6810    37.8340 H      1307  TIP1157     0.2052
 22834 OH2          1.6910    -2.3640    32.2110 O.3    1308  TIP1158    -0.4105
 22835 H1           0.9390    -2.4200    32.8000 H      1308  TIP1158     0.2052
 22836 H2           2.2800    -1.7370    32.6310 H      1308  TIP1158     0.2052
 22837 OH2          1.2660   -16.3670    36.9230 O.3    1309  TIP1159    -0.4105
 22838 H1           0.4720   -16.6050    37.4020 H      1309  TIP1159     0.2052
 22839 H2           1.9790   -16.5400    37.5380 H      1309  TIP1159     0.2052
 22840 OH2         -8.5460    18.3290   -54.5180 O.3    1310  TIP1160    -0.4105
 22841 H1          -8.3240    17.5340   -55.0020 H      1310  TIP1160     0.2052
 22842 H2          -8.2750    18.1470   -53.6190 H      1310  TIP1160     0.2052
 22843 OH2        -20.0940    18.4530    45.9450 O.3    1311  TIP1161    -0.4105
 22844 H1         -20.9350    18.6520    45.5330 H      1311  TIP1161     0.2052
 22845 H2         -19.9250    17.5390    45.7170 H      1311  TIP1161     0.2052
 22846 OH2        -28.5270    11.2130    50.9480 O.3    1312  TIP1162    -0.4105
 22847 H1         -27.7030    11.5260    50.5750 H      1312  TIP1162     0.2052
 22848 H2         -28.8230    11.9280    51.5110 H      1312  TIP1162     0.2052
 22849 OH2        -25.0370    -9.5010    43.2840 O.3    1313  TIP1163    -0.4105
 22850 H1         -25.8150    -9.9880    43.0130 H      1313  TIP1163     0.2052
 22851 H2         -25.3790    -8.7710    43.8000 H      1313  TIP1163     0.2052
 22852 OH2        -17.4020    -9.6900   -29.6740 O.3    1314  TIP1164    -0.4105
 22853 H1         -17.4000    -9.1550   -28.8800 H      1314  TIP1164     0.2052
 22854 H2         -17.3750    -9.0560   -30.3910 H      1314  TIP1164     0.2052
 22855 OH2         11.8390   -20.4330    55.2250 O.3    1315  TIP1165    -0.4105
 22856 H1          10.9520   -20.2200    54.9360 H      1315  TIP1165     0.2052
 22857 H2          11.7620   -20.5500    56.1720 H      1315  TIP1165     0.2052
 22858 OH2        -17.0000    24.8000    41.1850 O.3    1316  TIP1166    -0.4105
 22859 H1         -17.5250    25.5100    41.5530 H      1316  TIP1166     0.2052
 22860 H2         -17.1890    24.8220    40.2470 H      1316  TIP1166     0.2052
 22861 OH2        -30.9500     0.3920    42.8280 O.3    1317  TIP1167    -0.4105
 22862 H1         -30.4370    -0.0830    42.1750 H      1317  TIP1167     0.2052
 22863 H2         -31.6870     0.7550    42.3370 H      1317  TIP1167     0.2052
 22864 OH2        -32.1270    25.2970   -27.0490 O.3    1318  TIP1168    -0.4105
 22865 H1         -31.6860    24.4480   -27.0860 H      1318  TIP1168     0.2052
 22866 H2         -31.7410    25.7980   -27.7680 H      1318  TIP1168     0.2052
 22867 OH2         -7.7780    14.0700    51.6500 O.3    1319  TIP1169    -0.4105
 22868 H1          -6.9600    14.5620    51.5790 H      1319  TIP1169     0.2052
 22869 H2          -7.7450    13.4460    50.9240 H      1319  TIP1169     0.2052
 22870 OH2         15.2380    25.2840   -22.8860 O.3    1320  TIP1170    -0.4105
 22871 H1          15.7630    24.5100   -22.6850 H      1320  TIP1170     0.2052
 22872 H2          14.3510    24.9460   -23.0100 H      1320  TIP1170     0.2052
 22873 OH2         -5.6510    -1.4190    33.6800 O.3    1321  TIP1171    -0.4105
 22874 H1          -4.8770    -1.9400    33.4680 H      1321  TIP1171     0.2052
 22875 H2          -5.6140    -0.6770    33.0750 H      1321  TIP1171     0.2052
 22876 OH2         28.3730   -23.0110   -43.0390 O.3    1322  TIP1172    -0.4105
 22877 H1          28.5710   -23.8900   -42.7170 H      1322  TIP1172     0.2052
 22878 H2          29.2050   -22.6900   -43.3880 H      1322  TIP1172     0.2052
 22879 OH2        -32.4220    16.0120   -40.3920 O.3    1323  TIP1173    -0.4105
 22880 H1         -32.8320    16.8770   -40.3710 H      1323  TIP1173     0.2052
 22881 H2         -33.0970    15.4180   -40.0640 H      1323  TIP1173     0.2052
 22882 OH2         31.8260    -8.5400   -50.8060 O.3    1324  TIP1174    -0.4105
 22883 H1          32.7330    -8.6280   -51.0970 H      1324  TIP1174     0.2052
 22884 H2          31.3520    -8.2440   -51.5840 H      1324  TIP1174     0.2052
 22885 OH2         19.7460     7.5580   -53.0470 O.3    1325  TIP1175    -0.4105
 22886 H1          20.4390     6.9590   -52.7660 H      1325  TIP1175     0.2052
 22887 H2          19.8020     7.5580   -54.0020 H      1325  TIP1175     0.2052
 22888 OH2         11.4880    19.0580   -27.6180 O.3    1326  TIP1176    -0.4105
 22889 H1          11.2080    19.9700   -27.6870 H      1326  TIP1176     0.2052
 22890 H2          12.2600    19.0000   -28.1810 H      1326  TIP1176     0.2052
 22891 OH2        -15.0680    -2.5810   -31.5130 O.3    1327  TIP1177    -0.4105
 22892 H1         -14.5300    -2.2480   -30.7950 H      1327  TIP1177     0.2052
 22893 H2         -14.8630    -3.5150   -31.5540 H      1327  TIP1177     0.2052
 22894 OH2         -1.9480    24.0720    29.3190 O.3    1328  TIP1178    -0.4105
 22895 H1          -1.7180    24.9230    28.9450 H      1328  TIP1178     0.2052
 22896 H2          -1.3730    23.4510    28.8740 H      1328  TIP1178     0.2052
 22897 OH2          6.1060     3.7520   -12.2750 O.3    1329  TIP1179    -0.4105
 22898 H1           6.0340     4.1630   -11.4130 H      1329  TIP1179     0.2052
 22899 H2           6.1910     4.4850   -12.8840 H      1329  TIP1179     0.2052
 22900 OH2        -14.7400    -0.4780   -52.6510 O.3    1330  TIP1180    -0.4105
 22901 H1         -14.5300    -0.7690   -53.5390 H      1330  TIP1180     0.2052
 22902 H2         -14.0290     0.1190   -52.4190 H      1330  TIP1180     0.2052
 22903 OH2        -15.2560    19.0440   -54.5390 O.3    1331  TIP1181    -0.4105
 22904 H1         -16.1660    18.7640   -54.4440 H      1331  TIP1181     0.2052
 22905 H2         -15.1170    19.6570   -53.8180 H      1331  TIP1181     0.2052
 22906 OH2        -30.0800    27.3970    27.4580 O.3    1332  TIP1182    -0.4105
 22907 H1         -29.8080    27.1240    26.5820 H      1332  TIP1182     0.2052
 22908 H2         -29.4160    28.0320    27.7290 H      1332  TIP1182     0.2052
 22909 OH2         -1.3450    -8.0160    34.1920 O.3    1333  TIP1183    -0.4105
 22910 H1          -1.3410    -7.9580    33.2370 H      1333  TIP1183     0.2052
 22911 H2          -2.0780    -8.5980    34.3940 H      1333  TIP1183     0.2052
 22912 OH2          3.9500    18.8470    53.5820 O.3    1334  TIP1184    -0.4105
 22913 H1           3.5550    18.0090    53.3430 H      1334  TIP1184     0.2052
 22914 H2           3.4060    19.1730    54.2990 H      1334  TIP1184     0.2052
 22915 OH2        -11.9070    -3.5960   -41.9550 O.3    1335  TIP1185    -0.4105
 22916 H1         -11.5580    -3.6100   -42.8460 H      1335  TIP1185     0.2052
 22917 H2         -11.1850    -3.2680   -41.4190 H      1335  TIP1185     0.2052
 22918 OH2         -5.8530    -0.9780    44.4920 O.3    1336  TIP1186    -0.4105
 22919 H1          -6.1730    -0.1640    44.8810 H      1336  TIP1186     0.2052
 22920 H2          -6.6090    -1.5650    44.5100 H      1336  TIP1186     0.2052
 22921 OH2         24.9520    22.8190   -44.8680 O.3    1337  TIP1187    -0.4105
 22922 H1          24.3030    23.5220   -44.8450 H      1337  TIP1187     0.2052
 22923 H2          24.8310    22.4090   -45.7250 H      1337  TIP1187     0.2052
 22924 OH2         32.5350    12.1040   -26.2610 O.3    1338  TIP1188    -0.4105
 22925 H1          31.7370    11.7570   -26.6600 H      1338  TIP1188     0.2052
 22926 H2          32.6320    12.9780   -26.6390 H      1338  TIP1188     0.2052
 22927 OH2         20.2040    21.2380    44.2660 O.3    1339  TIP1189    -0.4105
 22928 H1          20.4420    21.0010    43.3690 H      1339  TIP1189     0.2052
 22929 H2          20.6840    22.0480    44.4350 H      1339  TIP1189     0.2052
 22930 OH2         13.1300   -27.2860    50.7230 O.3    1340  TIP1190    -0.4105
 22931 H1          14.0490   -27.0950    50.5350 H      1340  TIP1190     0.2052
 22932 H2          13.1260   -28.2040    50.9920 H      1340  TIP1190     0.2052
 22933 OH2         17.3400    14.4430    39.8580 O.3    1341  TIP1191    -0.4105
 22934 H1          17.9940    13.8940    39.4250 H      1341  TIP1191     0.2052
 22935 H2          17.5340    14.3570    40.7910 H      1341  TIP1191     0.2052
 22936 OH2         25.0130   -18.3580   -45.6230 O.3    1342  TIP1192    -0.4105
 22937 H1          24.5680   -19.1690   -45.3780 H      1342  TIP1192     0.2052
 22938 H2          25.7630   -18.6430   -46.1450 H      1342  TIP1192     0.2052
 22939 OH2         -3.7250   -21.6520   -31.9630 O.3    1343  TIP1193    -0.4105
 22940 H1          -2.9190   -21.9660   -31.5520 H      1343  TIP1193     0.2052
 22941 H2          -4.3850   -22.3020   -31.7240 H      1343  TIP1193     0.2052
 22942 OH2         -7.9480    -8.4540    55.3600 O.3    1344  TIP1194    -0.4105
 22943 H1          -8.3000    -7.8980    56.0550 H      1344  TIP1194     0.2052
 22944 H2          -8.4840    -9.2460    55.3920 H      1344  TIP1194     0.2052
 22945 OH2         21.8310    18.0080   -54.3620 O.3    1345  TIP1195    -0.4105
 22946 H1          22.6390    17.4960   -54.3260 H      1345  TIP1195     0.2052
 22947 H2          21.4100    17.8510   -53.5170 H      1345  TIP1195     0.2052
 22948 OH2         -3.4420   -12.6390   -54.0120 O.3    1346  TIP1196    -0.4105
 22949 H1          -2.7030   -13.1030   -53.6190 H      1346  TIP1196     0.2052
 22950 H2          -4.1540   -12.7430   -53.3810 H      1346  TIP1196     0.2052
 22951 OH2         30.4580    25.8640   -29.2800 O.3    1347  TIP1197    -0.4105
 22952 H1          31.0200    25.8930   -30.0540 H      1347  TIP1197     0.2052
 22953 H2          29.5670    25.8830   -29.6280 H      1347  TIP1197     0.2052
 22954 OH2         -3.0690    -0.0740    51.3460 O.3    1348  TIP1198    -0.4105
 22955 H1          -3.8120    -0.5430    50.9650 H      1348  TIP1198     0.2052
 22956 H2          -3.2920     0.8510    51.2440 H      1348  TIP1198     0.2052
 22957 OH2         -5.5460    26.8630    42.5710 O.3    1349  TIP1199    -0.4105
 22958 H1          -5.5890    27.5420    41.8980 H      1349  TIP1199     0.2052
 22959 H2          -6.1020    26.1590    42.2370 H      1349  TIP1199     0.2052
 22960 OH2         27.7730    -7.7480    45.7080 O.3    1350  TIP1200    -0.4105
 22961 H1          28.0000    -8.5720    45.2760 H      1350  TIP1200     0.2052
 22962 H2          28.4410    -7.1300    45.4100 H      1350  TIP1200     0.2052
 22963 OH2         28.1000   -27.4760   -34.0070 O.3    1351  TIP1201    -0.4105
 22964 H1          28.8380   -27.9710   -33.6510 H      1351  TIP1201     0.2052
 22965 H2          28.3590   -27.2750   -34.9070 H      1351  TIP1201     0.2052
 22966 OH2         11.3720   -26.1880   -46.0160 O.3    1352  TIP1202    -0.4105
 22967 H1          10.4300   -26.0720   -46.1370 H      1352  TIP1202     0.2052
 22968 H2          11.5730   -25.7010   -45.2170 H      1352  TIP1202     0.2052
 22969 OH2         24.4900   -22.9770    52.7660 O.3    1353  TIP1203    -0.4105
 22970 H1          23.5740   -22.9220    53.0400 H      1353  TIP1203     0.2052
 22971 H2          24.5800   -22.2990    52.0960 H      1353  TIP1203     0.2052
 22972 OH2         -3.6920     2.4990    28.3940 O.3    1354  TIP1204    -0.4105
 22973 H1          -3.4940     3.3900    28.1080 H      1354  TIP1204     0.2052
 22974 H2          -3.0230     2.3030    29.0500 H      1354  TIP1204     0.2052
 22975 OH2          2.8330   -10.0110   -30.6210 O.3    1355  TIP1205    -0.4105
 22976 H1           1.9770    -9.5930   -30.7120 H      1355  TIP1205     0.2052
 22977 H2           2.6390   -10.8850   -30.2810 H      1355  TIP1205     0.2052
 22978 OH2         -4.8060   -19.8980    36.8390 O.3    1356  TIP1206    -0.4105
 22979 H1          -4.8300   -20.7460    37.2830 H      1356  TIP1206     0.2052
 22980 H2          -3.8910   -19.7910    36.5760 H      1356  TIP1206     0.2052
 22981 OH2        -31.9010   -12.4490    48.6080 O.3    1357  TIP1207    -0.4105
 22982 H1         -31.3780   -12.8910    49.2770 H      1357  TIP1207     0.2052
 22983 H2         -32.0680   -13.1230    47.9500 H      1357  TIP1207     0.2052
 22984 OH2        -24.9510    11.9190   -53.7910 O.3    1358  TIP1208    -0.4105
 22985 H1         -25.1570    11.2600   -53.1280 H      1358  TIP1208     0.2052
 22986 H2         -24.0410    12.1590   -53.6160 H      1358  TIP1208     0.2052
 22987 OH2         19.1610   -10.6680   -35.2170 O.3    1359  TIP1209    -0.4105
 22988 H1          20.0900   -10.4580   -35.1200 H      1359  TIP1209     0.2052
 22989 H2          18.7280   -10.1680   -34.5250 H      1359  TIP1209     0.2052
 22990 OH2        -19.1440   -12.3380    47.5190 O.3    1360  TIP1210    -0.4105
 22991 H1         -18.9800   -13.2340    47.2260 H      1360  TIP1210     0.2052
 22992 H2         -18.2990   -11.8980    47.4300 H      1360  TIP1210     0.2052
 22993 OH2         14.3910    27.9540    29.2700 O.3    1361  TIP1211    -0.4105
 22994 H1          13.9290    28.1980    30.0720 H      1361  TIP1211     0.2052
 22995 H2          15.3030    28.1890    29.4370 H      1361  TIP1211     0.2052
 22996 OH2        -14.6550   -13.7560   -38.5250 O.3    1362  TIP1212    -0.4105
 22997 H1         -14.5230   -12.9450   -38.0340 H      1362  TIP1212     0.2052
 22998 H2         -13.7870   -13.9760   -38.8630 H      1362  TIP1212     0.2052
 22999 OH2         27.7800    -7.3350    55.2950 O.3    1363  TIP1213    -0.4105
 23000 H1          27.0910    -7.9930    55.2000 H      1363  TIP1213     0.2052
 23001 H2          27.4250    -6.5530    54.8720 H      1363  TIP1213     0.2052
 23002 OH2        -18.4670   -20.6050   -46.8240 O.3    1364  TIP1214    -0.4105
 23003 H1         -17.7440   -19.9800   -46.7570 H      1364  TIP1214     0.2052
 23004 H2         -18.5860   -20.9300   -45.9310 H      1364  TIP1214     0.2052
 23005 OH2          5.4960   -31.3170   -53.2530 O.3    1365  TIP1215    -0.4105
 23006 H1           5.8540   -30.4300   -53.2940 H      1365  TIP1215     0.2052
 23007 H2           5.8740   -31.6920   -52.4580 H      1365  TIP1215     0.2052
 23008 OH2        -14.5870    20.4220   -43.7030 O.3    1366  TIP1216    -0.4105
 23009 H1         -14.8990    21.1960   -43.2320 H      1366  TIP1216     0.2052
 23010 H2         -14.9580    20.5090   -44.5810 H      1366  TIP1216     0.2052
 23011 OH2         -6.6590   -25.6720    30.3540 O.3    1367  TIP1217    -0.4105
 23012 H1          -7.3920   -25.7610    30.9630 H      1367  TIP1217     0.2052
 23013 H2          -5.9840   -25.2160    30.8570 H      1367  TIP1217     0.2052
 23014 OH2         18.4280    -7.0960   -48.0390 O.3    1368  TIP1218    -0.4105
 23015 H1          17.8300    -6.7410   -48.6970 H      1368  TIP1218     0.2052
 23016 H2          18.5080    -8.0230   -48.2620 H      1368  TIP1218     0.2052
 23017 OH2        -26.6690   -21.1990    51.0080 O.3    1369  TIP1219    -0.4105
 23018 H1         -26.3610   -21.3700    50.1180 H      1369  TIP1219     0.2052
 23019 H2         -26.7160   -20.2450    51.0670 H      1369  TIP1219     0.2052
 23020 OH2         11.9080    16.0460    49.4370 O.3    1370  TIP1220    -0.4105
 23021 H1          11.0810    16.2970    49.8490 H      1370  TIP1220     0.2052
 23022 H2          11.6530    15.4610    48.7240 H      1370  TIP1220     0.2052
 23023 OH2        -19.4950   -27.7930   -30.2490 O.3    1371  TIP1221    -0.4105
 23024 H1         -19.2020   -27.6610   -29.3470 H      1371  TIP1221     0.2052
 23025 H2         -19.0300   -27.1260   -30.7530 H      1371  TIP1221     0.2052
 23026 OH2        -21.6830    26.9280   -45.6300 O.3    1372  TIP1222    -0.4105
 23027 H1         -21.5960    26.5850   -46.5190 H      1372  TIP1222     0.2052
 23028 H2         -22.5730    26.6930   -45.3670 H      1372  TIP1222     0.2052
 23029 OH2        -11.1510     7.9790   -44.1020 O.3    1373  TIP1223    -0.4105
 23030 H1         -10.9330     7.3800   -44.8160 H      1373  TIP1223     0.2052
 23031 H2         -11.6730     8.6660   -44.5170 H      1373  TIP1223     0.2052
 23032 OH2        -31.3200   -31.5950   -32.0500 O.3    1374  TIP1224    -0.4105
 23033 H1         -31.5170   -30.9920   -31.3340 H      1374  TIP1224     0.2052
 23034 H2         -31.1780   -32.4390   -31.6210 H      1374  TIP1224     0.2052
 23035 OH2          0.8340    22.1600   -38.7930 O.3    1375  TIP1225    -0.4105
 23036 H1           0.6790    21.4090   -38.2210 H      1375  TIP1225     0.2052
 23037 H2           0.6750    22.9220   -38.2360 H      1375  TIP1225     0.2052
 23038 OH2         31.5370   -28.9580   -26.4090 O.3    1376  TIP1226    -0.4105
 23039 H1          32.2200   -29.6200   -26.5160 H      1376  TIP1226     0.2052
 23040 H2          30.7380   -29.4610   -26.2500 H      1376  TIP1226     0.2052
 23041 OH2         18.0350   -23.0590   -39.8680 O.3    1377  TIP1227    -0.4105
 23042 H1          17.2200   -23.5560   -39.7930 H      1377  TIP1227     0.2052
 23043 H2          17.8420   -22.3780   -40.5130 H      1377  TIP1227     0.2052
 23044 OH2         22.6140   -13.9270   -33.0370 O.3    1378  TIP1228    -0.4105
 23045 H1          22.3000   -14.8100   -33.2300 H      1378  TIP1228     0.2052
 23046 H2          23.4760   -14.0600   -32.6410 H      1378  TIP1228     0.2052
 23047 OH2         -3.7020    30.4550    51.8320 O.3    1379  TIP1229    -0.4105
 23048 H1          -3.1920    30.6610    51.0490 H      1379  TIP1229     0.2052
 23049 H2          -3.4570    29.5550    52.0480 H      1379  TIP1229     0.2052
 23050 OH2         31.7540    32.2040   -30.4760 O.3    1380  TIP1230    -0.4105
 23051 H1          31.3730    32.5320   -31.2910 H      1380  TIP1230     0.2052
 23052 H2          31.0260    32.2020   -29.8550 H      1380  TIP1230     0.2052
 23053 OH2          4.3260    16.3640    35.5580 O.3    1381  TIP1231    -0.4105
 23054 H1           4.6140    16.2910    34.6480 H      1381  TIP1231     0.2052
 23055 H2           5.1000    16.6720    36.0300 H      1381  TIP1231     0.2052
 23056 OH2         -6.4180   -23.6840    53.0980 O.3    1382  TIP1232    -0.4105
 23057 H1          -5.4640   -23.6560    53.0300 H      1382  TIP1232     0.2052
 23058 H2          -6.7270   -23.5550    52.2020 H      1382  TIP1232     0.2052
 23059 OH2         11.3260    18.5300   -21.6210 O.3    1383  TIP1233    -0.4105
 23060 H1          11.4410    19.3800   -22.0450 H      1383  TIP1233     0.2052
 23061 H2          12.2130    18.2530   -21.3950 H      1383  TIP1233     0.2052
 23062 OH2         10.2460   -29.9890   -19.7870 O.3    1384  TIP1234    -0.4105
 23063 H1          10.4020   -29.1200   -20.1570 H      1384  TIP1234     0.2052
 23064 H2           9.9010   -29.8180   -18.9110 H      1384  TIP1234     0.2052
 23065 OH2        -23.0640   -19.0400    51.8670 O.3    1385  TIP1235    -0.4105
 23066 H1         -23.0040   -18.1430    51.5380 H      1385  TIP1235     0.2052
 23067 H2         -23.7940   -19.0210    52.4850 H      1385  TIP1235     0.2052
 23068 OH2        -20.3100    -9.3590   -33.1560 O.3    1386  TIP1236    -0.4105
 23069 H1         -19.6930   -10.0870   -33.2290 H      1386  TIP1236     0.2052
 23070 H2         -20.1080    -8.7970   -33.9040 H      1386  TIP1236     0.2052
 23071 OH2         17.7070   -30.7240    52.2270 O.3    1387  TIP1237    -0.4105
 23072 H1          17.4050   -30.0340    52.8190 H      1387  TIP1237     0.2052
 23073 H2          17.1400   -30.6460    51.4600 H      1387  TIP1237     0.2052
 23074 OH2         23.8470     5.5550    40.1610 O.3    1388  TIP1238    -0.4105
 23075 H1          23.2560     5.6890    39.4200 H      1388  TIP1238     0.2052
 23076 H2          23.3170     5.0910    40.8100 H      1388  TIP1238     0.2052
 23077 OH2         -5.3160   -27.4060   -40.6770 O.3    1389  TIP1239    -0.4105
 23078 H1          -4.6280   -28.0430   -40.4820 H      1389  TIP1239     0.2052
 23079 H2          -6.1120   -27.9310   -40.7610 H      1389  TIP1239     0.2052
 23080 OH2          7.7700   -12.3650    47.2730 O.3    1390  TIP1240    -0.4105
 23081 H1           7.6550   -13.2880    47.0470 H      1390  TIP1240     0.2052
 23082 H2           8.5820   -12.3410    47.7790 H      1390  TIP1240     0.2052
 23083 OH2        -31.4340   -27.1780   -27.9930 O.3    1391  TIP1241    -0.4105
 23084 H1         -32.2100   -27.4680   -28.4720 H      1391  TIP1241     0.2052
 23085 H2         -31.3270   -27.8250   -27.2950 H      1391  TIP1241     0.2052
 23086 OH2         -3.0380   -21.8790    46.5010 O.3    1392  TIP1242    -0.4105
 23087 H1          -3.4330   -21.0980    46.1120 H      1392  TIP1242     0.2052
 23088 H2          -2.2600   -21.5540    46.9530 H      1392  TIP1242     0.2052
 23089 OH2        -16.8380   -13.3170   -28.6330 O.3    1393  TIP1243    -0.4105
 23090 H1         -16.2900   -13.2560   -27.8500 H      1393  TIP1243     0.2052
 23091 H2         -16.3640   -12.8160   -29.2960 H      1393  TIP1243     0.2052
 23092 OH2        -29.1660     3.7170    46.6090 O.3    1394  TIP1244    -0.4105
 23093 H1         -29.8100     4.0360    45.9770 H      1394  TIP1244     0.2052
 23094 H2         -28.4790     3.3220    46.0720 H      1394  TIP1244     0.2052
 23095 OH2        -19.8360    -8.5670   -28.2760 O.3    1395  TIP1245    -0.4105
 23096 H1         -20.1900    -9.4210   -28.0270 H      1395  TIP1245     0.2052
 23097 H2         -20.4180    -8.2590   -28.9700 H      1395  TIP1245     0.2052
 23098 OH2         -0.6410    16.9340    41.3840 O.3    1396  TIP1246    -0.4105
 23099 H1          -0.3710    16.8830    40.4670 H      1396  TIP1246     0.2052
 23100 H2          -1.4390    16.4080    41.4280 H      1396  TIP1246     0.2052
 23101 OH2          6.2420    15.5470   -35.9300 O.3    1397  TIP1247    -0.4105
 23102 H1           5.2920    15.6610   -35.9300 H      1397  TIP1247     0.2052
 23103 H2           6.5470    16.0780   -36.6660 H      1397  TIP1247     0.2052
 23104 OH2         -6.3990     3.4520    40.3490 O.3    1398  TIP1248    -0.4105
 23105 H1          -5.9190     2.6760    40.0590 H      1398  TIP1248     0.2052
 23106 H2          -7.0510     3.5990    39.6640 H      1398  TIP1248     0.2052
 23107 OH2        -20.6040   -20.0440   -30.9310 O.3    1399  TIP1249    -0.4105
 23108 H1         -20.1420   -19.3660   -30.4370 H      1399  TIP1249     0.2052
 23109 H2         -20.9260   -19.5940   -31.7120 H      1399  TIP1249     0.2052
 23110 OH2         12.3410   -18.3900   -37.1750 O.3    1400  TIP1250    -0.4105
 23111 H1          11.8430   -18.6810   -37.9380 H      1400  TIP1250     0.2052
 23112 H2          12.2390   -19.0970   -36.5380 H      1400  TIP1250     0.2052
 23113 OH2         24.3120    -4.7380   -12.4750 O.3    1401  TIP1251    -0.4105
 23114 H1          23.9950    -3.8540   -12.2910 H      1401  TIP1251     0.2052
 23115 H2          25.1880    -4.6080   -12.8380 H      1401  TIP1251     0.2052
 23116 OH2        -29.3260   -17.9480   -22.7430 O.3    1402  TIP1252    -0.4105
 23117 H1         -28.5270   -18.0760   -22.2310 H      1402  TIP1252     0.2052
 23118 H2         -29.6610   -18.8320   -22.8900 H      1402  TIP1252     0.2052
 23119 OH2         23.6330   -14.1310   -29.2260 O.3    1403  TIP1253    -0.4105
 23120 H1          24.5140   -14.5020   -29.1790 H      1403  TIP1253     0.2052
 23121 H2          23.0510   -14.8900   -29.2060 H      1403  TIP1253     0.2052
 23122 OH2         11.6850    -6.1620    49.9080 O.3    1404  TIP1254    -0.4105
 23123 H1          11.1140    -5.5200    50.3290 H      1404  TIP1254     0.2052
 23124 H2          11.3870    -7.0070    50.2450 H      1404  TIP1254     0.2052
 23125 OH2         24.1740     6.5860    28.5610 O.3    1405  TIP1255    -0.4105
 23126 H1          25.0260     6.1500    28.5490 H      1405  TIP1255     0.2052
 23127 H2          23.5860     5.9550    28.9740 H      1405  TIP1255     0.2052
 23128 OH2         -4.2620     6.3780   -21.4440 O.3    1406  TIP1256    -0.4105
 23129 H1          -4.8520     6.2080   -22.1770 H      1406  TIP1256     0.2052
 23130 H2          -4.6770     5.9470   -20.6970 H      1406  TIP1256     0.2052
 23131 OH2        -10.0260    18.7830    33.3650 O.3    1407  TIP1257    -0.4105
 23132 H1          -9.4990    18.0290    33.6310 H      1407  TIP1257     0.2052
 23133 H2         -10.3130    19.1780    34.1890 H      1407  TIP1257     0.2052
 23134 OH2         -5.1140   -14.9860   -18.1620 O.3    1408  TIP1258    -0.4105
 23135 H1          -4.8930   -14.0990   -17.8800 H      1408  TIP1258     0.2052
 23136 H2          -6.0160   -14.9200   -18.4760 H      1408  TIP1258     0.2052
 23137 OH2         -0.6540   -26.8880    46.4780 O.3    1409  TIP1259    -0.4105
 23138 H1          -0.6110   -26.6970    47.4150 H      1409  TIP1259     0.2052
 23139 H2          -1.3830   -27.5020    46.3920 H      1409  TIP1259     0.2052
 23140 OH2          1.9360   -20.0660   -48.7210 O.3    1410  TIP1260    -0.4105
 23141 H1           2.5970   -19.9060   -48.0480 H      1410  TIP1260     0.2052
 23142 H2           1.8180   -19.2180   -49.1490 H      1410  TIP1260     0.2052
 23143 OH2         30.7080   -29.3610    39.7590 O.3    1411  TIP1261    -0.4105
 23144 H1          30.7620   -29.2410    38.8110 H      1411  TIP1261     0.2052
 23145 H2          30.0120   -30.0070    39.8790 H      1411  TIP1261     0.2052
 23146 OH2        -30.3990   -29.0360   -53.3010 O.3    1412  TIP1262    -0.4105
 23147 H1         -29.7770   -29.5550   -53.8100 H      1412  TIP1262     0.2052
 23148 H2         -29.9040   -28.7510   -52.5330 H      1412  TIP1262     0.2052
 23149 OH2        -13.0540    -0.9070   -33.8040 O.3    1413  TIP1263    -0.4105
 23150 H1         -12.2590    -0.3780   -33.7420 H      1413  TIP1263     0.2052
 23151 H2         -13.7690    -0.2730   -33.7540 H      1413  TIP1263     0.2052
 23152 OH2         -7.8090    30.3550    44.6820 O.3    1414  TIP1264    -0.4105
 23153 H1          -7.1190    30.9070    45.0500 H      1414  TIP1264     0.2052
 23154 H2          -7.8770    30.6330    43.7690 H      1414  TIP1264     0.2052
 23155 OH2          3.4110    27.4140   -44.6790 O.3    1415  TIP1265    -0.4105
 23156 H1           3.1900    26.4920   -44.5470 H      1415  TIP1265     0.2052
 23157 H2           3.0290    27.6340   -45.5280 H      1415  TIP1265     0.2052
 23158 OH2          2.1180   -28.2710   -48.5450 O.3    1416  TIP1266    -0.4105
 23159 H1           1.4980   -28.2880   -49.2740 H      1416  TIP1266     0.2052
 23160 H2           1.6840   -28.7660   -47.8500 H      1416  TIP1266     0.2052
 23161 OH2         26.6470     1.2510   -37.6200 O.3    1417  TIP1267    -0.4105
 23162 H1          26.5390     1.9530   -36.9780 H      1417  TIP1267     0.2052
 23163 H2          27.4450     0.7980   -37.3480 H      1417  TIP1267     0.2052
 23164 OH2        -30.2950    32.7120    19.5790 O.3    1418  TIP1268    -0.4105
 23165 H1         -30.6360    33.1850    18.8200 H      1418  TIP1268     0.2052
 23166 H2         -30.9360    32.0190    19.7390 H      1418  TIP1268     0.2052
 23167 OH2         12.2560    22.1790    33.8670 O.3    1419  TIP1269    -0.4105
 23168 H1          12.1680    21.4430    34.4720 H      1419  TIP1269     0.2052
 23169 H2          12.6930    22.8600    34.3790 H      1419  TIP1269     0.2052
 23170 OH2         14.6620    -7.5210    44.9520 O.3    1420  TIP1270    -0.4105
 23171 H1          13.9450    -6.8970    44.8360 H      1420  TIP1270     0.2052
 23172 H2          15.3000    -7.0540    45.4920 H      1420  TIP1270     0.2052
 23173 OH2         -5.8660    -1.8860   -47.4620 O.3    1421  TIP1271    -0.4105
 23174 H1          -5.4320    -1.0500   -47.2890 H      1421  TIP1271     0.2052
 23175 H2          -5.1500    -2.5190   -47.5200 H      1421  TIP1271     0.2052
 23176 OH2         23.1400     7.2150   -47.7730 O.3    1422  TIP1272    -0.4105
 23177 H1          23.1760     6.7610   -46.9310 H      1422  TIP1272     0.2052
 23178 H2          22.3960     7.8110   -47.6920 H      1422  TIP1272     0.2052
 23179 OH2         18.0830   -31.2090   -45.2180 O.3    1423  TIP1273    -0.4105
 23180 H1          18.6590   -30.7270   -45.8120 H      1423  TIP1273     0.2052
 23181 H2          18.6030   -31.9630   -44.9390 H      1423  TIP1273     0.2052
 23182 OH2        -26.4440    16.1440    38.5530 O.3    1424  TIP1274    -0.4105
 23183 H1         -26.6960    15.9660    37.6470 H      1424  TIP1274     0.2052
 23184 H2         -25.6380    15.6420    38.6810 H      1424  TIP1274     0.2052
 23185 OH2         16.9470    27.2890    26.2640 O.3    1425  TIP1275    -0.4105
 23186 H1          16.2670    27.8310    26.6640 H      1425  TIP1275     0.2052
 23187 H2          16.9380    26.4780    26.7720 H      1425  TIP1275     0.2052
 23188 OH2        -14.6160   -20.6300   -38.5540 O.3    1426  TIP1276    -0.4105
 23189 H1         -13.8950   -20.7210   -39.1770 H      1426  TIP1276     0.2052
 23190 H2         -14.6660   -21.4820   -38.1200 H      1426  TIP1276     0.2052
 23191 OH2         -7.5500   -30.1990    51.1810 O.3    1427  TIP1277    -0.4105
 23192 H1          -7.5310   -31.1560    51.1970 H      1427  TIP1277     0.2052
 23193 H2          -6.6710   -29.9460    50.8990 H      1427  TIP1277     0.2052
 23194 OH2        -12.2680    10.6270    44.3470 O.3    1428  TIP1278    -0.4105
 23195 H1         -12.9490    10.5090    45.0100 H      1428  TIP1278     0.2052
 23196 H2         -12.6670    11.1990    43.6920 H      1428  TIP1278     0.2052
 23197 OH2        -26.7820    27.3360    52.4870 O.3    1429  TIP1279    -0.4105
 23198 H1         -26.0070    27.7070    52.9110 H      1429  TIP1279     0.2052
 23199 H2         -27.3090    26.9930    53.2090 H      1429  TIP1279     0.2052
 23200 OH2         26.1870   -12.0240    55.4100 O.3    1430  TIP1280    -0.4105
 23201 H1          26.6620   -11.3910    55.9500 H      1430  TIP1280     0.2052
 23202 H2          25.3120   -12.0600    55.7960 H      1430  TIP1280     0.2052
 23203 OH2         19.8620   -31.8410   -18.0870 O.3    1431  TIP1281    -0.4105
 23204 H1          19.5540   -30.9830   -18.3790 H      1431  TIP1281     0.2052
 23205 H2          19.0860   -32.4010   -18.1270 H      1431  TIP1281     0.2052
 23206 OH2        -20.9640    -9.7260   -48.0100 O.3    1432  TIP1282    -0.4105
 23207 H1         -20.8770    -8.8090   -47.7510 H      1432  TIP1282     0.2052
 23208 H2         -20.8010    -9.7260   -48.9530 H      1432  TIP1282     0.2052
 23209 OH2          1.2280     8.4600   -12.8530 O.3    1433  TIP1283    -0.4105
 23210 H1           2.1050     8.1710   -13.1040 H      1433  TIP1283     0.2052
 23211 H2           0.6690     7.7000   -13.0170 H      1433  TIP1283     0.2052
 23212 OH2          7.6900    30.8380   -37.7980 O.3    1434  TIP1284    -0.4105
 23213 H1           8.5360    31.1500   -37.4790 H      1434  TIP1284     0.2052
 23214 H2           7.3370    30.3190   -37.0750 H      1434  TIP1284     0.2052
 23215 OH2         -7.4130    23.1460    44.7770 O.3    1435  TIP1285    -0.4105
 23216 H1          -7.0030    22.3100    45.0000 H      1435  TIP1285     0.2052
 23217 H2          -7.8760    23.4070    45.5730 H      1435  TIP1285     0.2052
 23218 OH2        -24.4540   -27.7970    52.2160 O.3    1436  TIP1286    -0.4105
 23219 H1         -24.4130   -28.7110    51.9350 H      1436  TIP1286     0.2052
 23220 H2         -25.3210   -27.7060    52.6110 H      1436  TIP1286     0.2052
 23221 OH2          2.6590    -8.6580    47.9910 O.3    1437  TIP1287    -0.4105
 23222 H1           1.7330    -8.5040    48.1780 H      1437  TIP1287     0.2052
 23223 H2           2.9330    -9.2980    48.6480 H      1437  TIP1287     0.2052
 23224 OH2          7.0420   -17.9300   -30.5780 O.3    1438  TIP1288    -0.4105
 23225 H1           6.3240   -17.9310   -31.2110 H      1438  TIP1288     0.2052
 23226 H2           7.0790   -17.0290   -30.2580 H      1438  TIP1288     0.2052
 23227 OH2        -10.0330   -17.6860    22.1610 O.3    1439  TIP1289    -0.4105
 23228 H1          -9.2200   -18.0590    21.8210 H      1439  TIP1289     0.2052
 23229 H2          -9.9800   -16.7550    21.9430 H      1439  TIP1289     0.2052
 23230 OH2        -25.8680    13.4800    45.9470 O.3    1440  TIP1290    -0.4105
 23231 H1         -26.5780    14.0150    45.5930 H      1440  TIP1290     0.2052
 23232 H2         -25.8290    13.7160    46.8740 H      1440  TIP1290     0.2052
 23233 OH2          4.6730    25.4560    54.2350 O.3    1441  TIP1291    -0.4105
 23234 H1           4.0780    25.8730    53.6120 H      1441  TIP1291     0.2052
 23235 H2           5.5170    25.8810    54.0820 H      1441  TIP1291     0.2052
 23236 OH2         31.9650    -4.3160   -19.4260 O.3    1442  TIP1292    -0.4105
 23237 H1          31.1860    -4.6280   -19.8860 H      1442  TIP1292     0.2052
 23238 H2          31.8160    -3.3780   -19.3100 H      1442  TIP1292     0.2052
 23239 OH2        -10.4260   -27.5880   -47.6590 O.3    1443  TIP1293    -0.4105
 23240 H1         -10.3590   -26.6820   -47.3580 H      1443  TIP1293     0.2052
 23241 H2         -11.2670   -27.6290   -48.1130 H      1443  TIP1293     0.2052
 23242 OH2          0.7320   -23.4720    37.6270 O.3    1444  TIP1294    -0.4105
 23243 H1           1.6750   -23.6340    37.6550 H      1444  TIP1294     0.2052
 23244 H2           0.3690   -24.0470    38.3000 H      1444  TIP1294     0.2052
 23245 OH2          7.7470    26.2590   -31.9730 O.3    1445  TIP1295    -0.4105
 23246 H1           8.4280    26.8170   -31.5970 H      1445  TIP1295     0.2052
 23247 H2           8.1240    25.9410   -32.7940 H      1445  TIP1295     0.2052
 23248 OH2         25.6380   -31.7370    28.6520 O.3    1446  TIP1296    -0.4105
 23249 H1          26.2890   -31.5540    29.3300 H      1446  TIP1296     0.2052
 23250 H2          26.1330   -32.1660    27.9540 H      1446  TIP1296     0.2052
 23251 OH2         20.3410   -25.3480   -27.7100 O.3    1447  TIP1297    -0.4105
 23252 H1          20.6790   -26.0500   -27.1540 H      1447  TIP1297     0.2052
 23253 H2          19.6290   -24.9600   -27.2010 H      1447  TIP1297     0.2052
 23254 OH2        -21.3020   -29.4090    49.8320 O.3    1448  TIP1298    -0.4105
 23255 H1         -20.6070   -29.8050    50.3590 H      1448  TIP1298     0.2052
 23256 H2         -22.1030   -29.5710    50.3300 H      1448  TIP1298     0.2052
 23257 OH2         17.3410    -4.9590   -16.2640 O.3    1449  TIP1299    -0.4105
 23258 H1          17.7000    -4.5880   -15.4580 H      1449  TIP1299     0.2052
 23259 H2          16.9420    -5.7850   -15.9910 H      1449  TIP1299     0.2052
 23260 OH2          5.5810    21.8370    49.7780 O.3    1450  TIP1300    -0.4105
 23261 H1           5.5350    22.7910    49.8440 H      1450  TIP1300     0.2052
 23262 H2           5.2310    21.5220    50.6110 H      1450  TIP1300     0.2052
 23263 OH2         -4.1450    21.0670    18.4810 O.3    1451  TIP1301    -0.4105
 23264 H1          -4.4840    20.7670    17.6370 H      1451  TIP1301     0.2052
 23265 H2          -3.1990    21.1390    18.3470 H      1451  TIP1301     0.2052
 23266 OH2         -7.6930   -10.6790   -29.5520 O.3    1452  TIP1302    -0.4105
 23267 H1          -8.1880   -11.1000   -28.8490 H      1452  TIP1302     0.2052
 23268 H2          -8.1210    -9.8320   -29.6730 H      1452  TIP1302     0.2052
 23269 OH2          3.5080   -30.0310    45.2780 O.3    1453  TIP1303    -0.4105
 23270 H1           2.7020   -30.2230    45.7570 H      1453  TIP1303     0.2052
 23271 H2           3.9940   -29.4390    45.8520 H      1453  TIP1303     0.2052
 23272 OH2         -7.0990     1.2160    45.9780 O.3    1454  TIP1304    -0.4105
 23273 H1          -7.9590     1.5030    45.6710 H      1454  TIP1304     0.2052
 23274 H2          -6.5530     2.0000    45.9310 H      1454  TIP1304     0.2052
 23275 OH2        -32.5160     1.7380   -47.4630 O.3    1455  TIP1305    -0.4105
 23276 H1         -32.2510     1.3930   -48.3160 H      1455  TIP1305     0.2052
 23277 H2         -31.9230     2.4730   -47.3070 H      1455  TIP1305     0.2052
 23278 OH2         26.3040    -5.8220   -49.4970 O.3    1456  TIP1306    -0.4105
 23279 H1          26.9680    -5.1600   -49.6870 H      1456  TIP1306     0.2052
 23280 H2          25.8810    -5.9860   -50.3400 H      1456  TIP1306     0.2052
 23281 OH2        -32.3050    -1.0860    31.3850 O.3    1457  TIP1307    -0.4105
 23282 H1         -31.7770    -0.3350    31.1160 H      1457  TIP1307     0.2052
 23283 H2         -31.9430    -1.8230    30.8930 H      1457  TIP1307     0.2052
 23284 OH2          7.1140    13.1360   -27.7020 O.3    1458  TIP1308    -0.4105
 23285 H1           7.3790    13.2980   -26.7970 H      1458  TIP1308     0.2052
 23286 H2           7.1580    13.9960   -28.1220 H      1458  TIP1308     0.2052
 23287 OH2        -24.8910    10.6920   -32.3430 O.3    1459  TIP1309    -0.4105
 23288 H1         -24.1940    11.1170   -32.8440 H      1459  TIP1309     0.2052
 23289 H2         -24.4320    10.1870   -31.6730 H      1459  TIP1309     0.2052
 23290 OH2        -15.7300    -2.1610   -24.3420 O.3    1460  TIP1310    -0.4105
 23291 H1         -15.7840    -2.5460   -23.4670 H      1460  TIP1310     0.2052
 23292 H2         -14.7930    -2.0310   -24.4880 H      1460  TIP1310     0.2052
 23293 OH2         15.2390    26.3070    34.7920 O.3    1461  TIP1311    -0.4105
 23294 H1          15.1870    26.7230    33.9320 H      1461  TIP1311     0.2052
 23295 H2          16.1680    26.1090    34.9070 H      1461  TIP1311     0.2052
 23296 OH2         -5.2830     1.1380   -41.6790 O.3    1462  TIP1312    -0.4105
 23297 H1          -6.2340     1.2380   -41.7250 H      1462  TIP1312     0.2052
 23298 H2          -5.0570     0.6340   -42.4610 H      1462  TIP1312     0.2052
 23299 OH2        -27.1350    -5.7060   -32.6300 O.3    1463  TIP1313    -0.4105
 23300 H1         -27.1100    -6.3910   -31.9620 H      1463  TIP1313     0.2052
 23301 H2         -27.9450    -5.8690   -33.1120 H      1463  TIP1313     0.2052
 23302 OH2          8.2380   -12.6130    41.6990 O.3    1464  TIP1314    -0.4105
 23303 H1           8.9060   -12.6730    41.0160 H      1464  TIP1314     0.2052
 23304 H2           8.4660   -11.8230    42.1890 H      1464  TIP1314     0.2052
 23305 OH2         23.9250   -28.7740   -49.8460 O.3    1465  TIP1315    -0.4105
 23306 H1          24.4580   -28.1400   -50.3260 H      1465  TIP1315     0.2052
 23307 H2          24.5350   -29.4740   -49.6130 H      1465  TIP1315     0.2052
 23308 OH2          2.3910   -17.5340    44.9840 O.3    1466  TIP1316    -0.4105
 23309 H1           2.8690   -17.8780    45.7390 H      1466  TIP1316     0.2052
 23310 H2           2.4260   -18.2370    44.3360 H      1466  TIP1316     0.2052
 23311 OH2         17.8270    23.9740    38.0970 O.3    1467  TIP1317    -0.4105
 23312 H1          17.6960    24.1220    39.0330 H      1467  TIP1317     0.2052
 23313 H2          18.4500    23.2490    38.0530 H      1467  TIP1317     0.2052
 23314 OH2         -6.8220   -22.2250    47.9770 O.3    1468  TIP1318    -0.4105
 23315 H1          -6.0170   -22.7100    47.7960 H      1468  TIP1318     0.2052
 23316 H2          -6.5390   -21.3160    48.0740 H      1468  TIP1318     0.2052
 23317 OH2         -7.6540    22.6570    23.9340 O.3    1469  TIP1319    -0.4105
 23318 H1          -6.7300    22.5940    23.6920 H      1469  TIP1319     0.2052
 23319 H2          -8.1260    22.3320    23.1670 H      1469  TIP1319     0.2052
 23320 OH2         -3.2850    -6.2300    47.9190 O.3    1470  TIP1320    -0.4105
 23321 H1          -3.9730    -6.2700    47.2550 H      1470  TIP1320     0.2052
 23322 H2          -3.5680    -5.5390    48.5170 H      1470  TIP1320     0.2052
 23323 OH2        -12.1060    26.1660    29.9510 O.3    1471  TIP1321    -0.4105
 23324 H1         -11.3070    26.0490    29.4370 H      1471  TIP1321     0.2052
 23325 H2         -12.3390    27.0860    29.8280 H      1471  TIP1321     0.2052
 23326 OH2         27.3970    26.6930   -37.8780 O.3    1472  TIP1322    -0.4105
 23327 H1          27.5790    26.1770   -38.6630 H      1472  TIP1322     0.2052
 23328 H2          26.8510    27.4160   -38.1870 H      1472  TIP1322     0.2052
 23329 OH2         30.6110    28.6290    28.3960 O.3    1473  TIP1323    -0.4105
 23330 H1          30.2860    28.8560    27.5250 H      1473  TIP1323     0.2052
 23331 H2          31.0880    29.4070    28.6850 H      1473  TIP1323     0.2052
 23332 OH2        -29.1680    -7.2620    37.0110 O.3    1474  TIP1324    -0.4105
 23333 H1         -29.7060    -8.0530    36.9790 H      1474  TIP1324     0.2052
 23334 H2         -29.4470    -6.8160    37.8110 H      1474  TIP1324     0.2052
 23335 OH2         17.2460   -21.8840    37.9850 O.3    1475  TIP1325    -0.4105
 23336 H1          16.3110   -22.0240    38.1390 H      1475  TIP1325     0.2052
 23337 H2          17.3720   -20.9440    38.1120 H      1475  TIP1325     0.2052
 23338 OH2        -14.1320    10.2830   -33.4540 O.3    1476  TIP1326    -0.4105
 23339 H1         -13.8810    10.4240   -32.5410 H      1476  TIP1326     0.2052
 23340 H2         -13.9060     9.3690   -33.6260 H      1476  TIP1326     0.2052
 23341 OH2        -25.8860    -2.2430    16.4920 O.3    1477  TIP1327    -0.4105
 23342 H1         -26.8220    -2.4390    16.5350 H      1477  TIP1327     0.2052
 23343 H2         -25.5230    -2.9290    15.9320 H      1477  TIP1327     0.2052
 23344 OH2          5.0470     2.0160    30.5810 O.3    1478  TIP1328    -0.4105
 23345 H1           4.6170     1.7020    29.7850 H      1478  TIP1328     0.2052
 23346 H2           4.3470     2.0570    31.2320 H      1478  TIP1328     0.2052
 23347 OH2         12.9640    -5.1630   -23.6470 O.3    1479  TIP1329    -0.4105
 23348 H1          12.1200    -5.6120   -23.6910 H      1479  TIP1329     0.2052
 23349 H2          13.5320    -5.6620   -24.2340 H      1479  TIP1329     0.2052
 23350 OH2         15.6740    10.6320   -28.7400 O.3    1480  TIP1330    -0.4105
 23351 H1          15.8320    10.8760   -29.6520 H      1480  TIP1330     0.2052
 23352 H2          15.7480     9.6770   -28.7310 H      1480  TIP1330     0.2052
 23353 OH2         13.4190     0.4820   -22.8270 O.3    1481  TIP1331    -0.4105
 23354 H1          12.9880    -0.3080   -23.1550 H      1481  TIP1331     0.2052
 23355 H2          14.3530     0.3110   -22.9450 H      1481  TIP1331     0.2052
 23356 OH2        -29.2140    15.0360   -24.7330 O.3    1482  TIP1332    -0.4105
 23357 H1         -29.0070    15.4510   -23.8950 H      1482  TIP1332     0.2052
 23358 H2         -28.3780    14.6860   -25.0400 H      1482  TIP1332     0.2052
 23359 OH2        -21.0930    28.3270    28.8750 O.3    1483  TIP1333    -0.4105
 23360 H1         -20.9460    27.4990    28.4180 H      1483  TIP1333     0.2052
 23361 H2         -21.8600    28.1650    29.4250 H      1483  TIP1333     0.2052
 23362 OH2         13.2120     0.8340   -44.6520 O.3    1484  TIP1334    -0.4105
 23363 H1          13.8400     1.5300   -44.8470 H      1484  TIP1334     0.2052
 23364 H2          13.0640     0.4020   -45.4930 H      1484  TIP1334     0.2052
 23365 OH2         29.9710   -16.0120    25.9890 O.3    1485  TIP1335    -0.4105
 23366 H1          29.2090   -15.9150    26.5590 H      1485  TIP1335     0.2052
 23367 H2          29.8760   -15.3140    25.3400 H      1485  TIP1335     0.2052
 23368 OH2         22.6560    11.3010    41.1660 O.3    1486  TIP1336    -0.4105
 23369 H1          22.1940    11.0950    41.9790 H      1486  TIP1336     0.2052
 23370 H2          21.9930    11.7100    40.6100 H      1486  TIP1336     0.2052
 23371 OH2         32.9500    31.8790    51.2950 O.3    1487  TIP1337    -0.4105
 23372 H1          32.7550    31.2890    50.5670 H      1487  TIP1337     0.2052
 23373 H2          32.2930    31.6670    51.9580 H      1487  TIP1337     0.2052
 23374 OH2         12.6300    20.1740    50.5330 O.3    1488  TIP1338    -0.4105
 23375 H1          12.8400    19.2460    50.4210 H      1488  TIP1338     0.2052
 23376 H2          11.7010    20.2380    50.3120 H      1488  TIP1338     0.2052
 23377 OH2         -1.2660     3.5680   -33.1840 O.3    1489  TIP1339    -0.4105
 23378 H1          -1.1800     4.5200   -33.2160 H      1489  TIP1339     0.2052
 23379 H2          -1.4340     3.3730   -32.2620 H      1489  TIP1339     0.2052
 23380 OH2         16.9660   -14.3090    43.4230 O.3    1490  TIP1340    -0.4105
 23381 H1          16.7760   -13.4750    42.9940 H      1490  TIP1340     0.2052
 23382 H2          16.6610   -14.1910    44.3230 H      1490  TIP1340     0.2052
 23383 OH2         -1.0260   -14.6020    39.1460 O.3    1491  TIP1341    -0.4105
 23384 H1          -0.1440   -14.5900    39.5160 H      1491  TIP1341     0.2052
 23385 H2          -0.9350   -14.1770    38.2930 H      1491  TIP1341     0.2052
 23386 OH2         21.1740    -8.7020    27.5110 O.3    1492  TIP1342    -0.4105
 23387 H1          21.6700    -8.3810    28.2640 H      1492  TIP1342     0.2052
 23388 H2          20.2570    -8.6180    27.7740 H      1492  TIP1342     0.2052
 23389 OH2         -6.4720   -31.8040   -40.1900 O.3    1493  TIP1343    -0.4105
 23390 H1          -6.8610   -31.6980   -41.0580 H      1493  TIP1343     0.2052
 23391 H2          -6.8430   -31.0890   -39.6720 H      1493  TIP1343     0.2052
 23392 OH2         26.6800   -27.2170   -24.0200 O.3    1494  TIP1344    -0.4105
 23393 H1          26.0050   -27.2810   -23.3440 H      1494  TIP1344     0.2052
 23394 H2          26.6730   -28.0730   -24.4470 H      1494  TIP1344     0.2052
 23395 OH2          6.2460    -6.4330    28.8050 O.3    1495  TIP1345    -0.4105
 23396 H1           6.3950    -6.7210    27.9040 H      1495  TIP1345     0.2052
 23397 H2           6.0830    -7.2410    29.2900 H      1495  TIP1345     0.2052
 23398 OH2        -22.7370   -31.2330   -52.9770 O.3    1496  TIP1346    -0.4105
 23399 H1         -22.7990   -30.3150   -52.7130 H      1496  TIP1346     0.2052
 23400 H2         -23.6100   -31.4480   -53.3040 H      1496  TIP1346     0.2052
 23401 OH2         18.3650    -0.6170   -42.8670 O.3    1497  TIP1347    -0.4105
 23402 H1          18.3210     0.2380   -42.4380 H      1497  TIP1347     0.2052
 23403 H2          17.4620    -0.9340   -42.8630 H      1497  TIP1347     0.2052
 23404 OH2         -2.1580     9.6700    51.3270 O.3    1498  TIP1348    -0.4105
 23405 H1          -1.4410    10.0110    51.8600 H      1498  TIP1348     0.2052
 23406 H2          -2.9490     9.8960    51.8160 H      1498  TIP1348     0.2052
 23407 OH2        -15.6760   -19.0790   -52.3580 O.3    1499  TIP1349    -0.4105
 23408 H1         -14.8560   -18.6270   -52.5550 H      1499  TIP1349     0.2052
 23409 H2         -15.9380   -18.7390   -51.5020 H      1499  TIP1349     0.2052
 23410 OH2         21.6350    27.4320   -38.5540 O.3    1500  TIP1350    -0.4105
 23411 H1          22.1130    27.1010   -37.7930 H      1500  TIP1350     0.2052
 23412 H2          21.2150    28.2340   -38.2430 H      1500  TIP1350     0.2052
 23413 OH2        -16.6430    22.6530   -35.5140 O.3    1501  TIP1351    -0.4105
 23414 H1         -16.8490    23.5570   -35.2730 H      1501  TIP1351     0.2052
 23415 H2         -16.3850    22.7030   -36.4340 H      1501  TIP1351     0.2052
 23416 OH2         29.5490    -0.3030    19.1950 O.3    1502  TIP1352    -0.4105
 23417 H1          29.3710     0.4280    18.6040 H      1502  TIP1352     0.2052
 23418 H2          28.7020    -0.7360    19.3030 H      1502  TIP1352     0.2052
 23419 OH2        -24.2830   -17.8240    30.9950 O.3    1503  TIP1353    -0.4105
 23420 H1         -25.0210   -18.3980    30.7920 H      1503  TIP1353     0.2052
 23421 H2         -24.6870   -16.9930    31.2450 H      1503  TIP1353     0.2052
 23422 OH2          5.7980    26.6450   -46.0760 O.3    1504  TIP1354    -0.4105
 23423 H1           6.0970    25.8260   -45.6810 H      1504  TIP1354     0.2052
 23424 H2           5.0740    26.9310   -45.5190 H      1504  TIP1354     0.2052
 23425 OH2        -10.7350   -20.4180    48.6980 O.3    1505  TIP1355    -0.4105
 23426 H1         -10.8980   -21.2470    48.2480 H      1505  TIP1355     0.2052
 23427 H2         -11.5240   -20.2690    49.2190 H      1505  TIP1355     0.2052
 23428 OH2          4.8050     5.9460   -38.9060 O.3    1506  TIP1356    -0.4105
 23429 H1           5.4980     6.6010   -38.8200 H      1506  TIP1356     0.2052
 23430 H2           4.1040     6.3980   -39.3750 H      1506  TIP1356     0.2052
 23431 OH2        -21.2970   -16.5960    53.1940 O.3    1507  TIP1357    -0.4105
 23432 H1         -21.9260   -16.6700    53.9130 H      1507  TIP1357     0.2052
 23433 H2         -20.8080   -17.4180    53.2180 H      1507  TIP1357     0.2052
 23434 OH2          3.2400    22.9670    42.7390 O.3    1508  TIP1358    -0.4105
 23435 H1           3.9140    22.3240    42.9580 H      1508  TIP1358     0.2052
 23436 H2           3.6760    23.8140    42.8320 H      1508  TIP1358     0.2052
 23437 OH2         22.7580    30.9570   -43.1060 O.3    1509  TIP1359    -0.4105
 23438 H1          23.1230    30.4070   -42.4130 H      1509  TIP1359     0.2052
 23439 H2          23.5220    31.3190   -43.5530 H      1509  TIP1359     0.2052
 23440 OH2          0.8610   -11.5410   -40.6490 O.3    1510  TIP1360    -0.4105
 23441 H1           1.1860   -11.7460   -39.7730 H      1510  TIP1360     0.2052
 23442 H2          -0.0910   -11.6060   -40.5730 H      1510  TIP1360     0.2052
 23443 OH2          9.0490    10.3640    24.1210 O.3    1511  TIP1361    -0.4105
 23444 H1           8.6510    10.0370    23.3150 H      1511  TIP1361     0.2052
 23445 H2           9.9910    10.3300    23.9550 H      1511  TIP1361     0.2052
 23446 OH2          5.0000    -0.6620   -20.9920 O.3    1512  TIP1362    -0.4105
 23447 H1           4.7390    -0.0780   -20.2800 H      1512  TIP1362     0.2052
 23448 H2           5.3070    -0.0760   -21.6830 H      1512  TIP1362     0.2052
 23449 OH2        -18.7580     2.7850   -47.2040 O.3    1513  TIP1363    -0.4105
 23450 H1         -19.4950     3.3470   -46.9640 H      1513  TIP1363     0.2052
 23451 H2         -18.0010     3.1840   -46.7760 H      1513  TIP1363     0.2052
 23452 OH2        -18.8090    -0.6680    42.5790 O.3    1514  TIP1364    -0.4105
 23453 H1         -18.4880    -1.4650    43.0020 H      1514  TIP1364     0.2052
 23454 H2         -18.8740    -0.8980    41.6520 H      1514  TIP1364     0.2052
 23455 OH2         -5.8120   -30.6530   -49.8950 O.3    1515  TIP1365    -0.4105
 23456 H1          -6.5360   -30.5670   -49.2750 H      1515  TIP1365     0.2052
 23457 H2          -6.1310   -30.2380   -50.6970 H      1515  TIP1365     0.2052
 23458 OH2         22.6390    -0.9760    23.7830 O.3    1516  TIP1366    -0.4105
 23459 H1          22.9210    -1.3370    24.6230 H      1516  TIP1366     0.2052
 23460 H2          23.4300    -0.9740    23.2450 H      1516  TIP1366     0.2052
 23461 OH2        -24.1660     5.0890   -22.0650 O.3    1517  TIP1367    -0.4105
 23462 H1         -24.4570     4.1820   -21.9690 H      1517  TIP1367     0.2052
 23463 H2         -24.5240     5.5380   -21.2980 H      1517  TIP1367     0.2052
 23464 OH2          3.1880    29.7790   -53.1800 O.3    1518  TIP1368    -0.4105
 23465 H1           2.7060    29.8260   -54.0060 H      1518  TIP1368     0.2052
 23466 H2           2.7600    30.4230   -52.6160 H      1518  TIP1368     0.2052
 23467 OH2        -31.5180    -6.8020   -13.0470 O.3    1519  TIP1369    -0.4105
 23468 H1         -31.0820    -7.3820   -12.4220 H      1519  TIP1369     0.2052
 23469 H2         -32.3210    -7.2660   -13.2850 H      1519  TIP1369     0.2052
 23470 OH2        -13.1690     8.2010   -19.8900 O.3    1520  TIP1370    -0.4105
 23471 H1         -13.6900     7.5610   -20.3730 H      1520  TIP1370     0.2052
 23472 H2         -13.7450     8.4960   -19.1840 H      1520  TIP1370     0.2052
 23473 OH2         31.0720     9.4150   -55.1950 O.3    1521  TIP1371    -0.4105
 23474 H1          30.2550     9.2340   -54.7300 H      1521  TIP1371     0.2052
 23475 H2          30.8550     9.2880   -56.1190 H      1521  TIP1371     0.2052
 23476 OH2        -29.0240   -15.8980    36.1100 O.3    1522  TIP1372    -0.4105
 23477 H1         -29.1650   -14.9770    36.3290 H      1522  TIP1372     0.2052
 23478 H2         -29.8470   -16.3290    36.3430 H      1522  TIP1372     0.2052
 23479 OH2         17.6740    15.8220   -36.5900 O.3    1523  TIP1373    -0.4105
 23480 H1          17.3980    15.1670   -35.9500 H      1523  TIP1373     0.2052
 23481 H2          18.1970    15.3320   -37.2250 H      1523  TIP1373     0.2052
 23482 OH2        -23.6630     5.0550    30.0600 O.3    1524  TIP1374    -0.4105
 23483 H1         -23.4780     4.7810    30.9590 H      1524  TIP1374     0.2052
 23484 H2         -24.0540     5.9240    30.1490 H      1524  TIP1374     0.2052
 23485 OH2        -30.3120    12.6660   -39.8340 O.3    1525  TIP1375    -0.4105
 23486 H1         -29.4020    12.9310   -39.9740 H      1525  TIP1375     0.2052
 23487 H2         -30.8070    13.1470   -40.4970 H      1525  TIP1375     0.2052
 23488 OH2        -24.6070   -27.0050    20.1550 O.3    1526  TIP1376    -0.4105
 23489 H1         -24.0980   -27.7250    19.7820 H      1526  TIP1376     0.2052
 23490 H2         -24.1770   -26.2140    19.8300 H      1526  TIP1376     0.2052
 23491 OH2         21.3900    -6.0620   -47.7360 O.3    1527  TIP1377    -0.4105
 23492 H1          20.5850    -6.3980   -47.3410 H      1527  TIP1377     0.2052
 23493 H2          22.0380    -6.1010   -47.0330 H      1527  TIP1377     0.2052
 23494 OH2        -13.7630   -10.8980    47.1470 O.3    1528  TIP1378    -0.4105
 23495 H1         -13.1990   -10.4050    47.7430 H      1528  TIP1378     0.2052
 23496 H2         -14.6050   -10.4440    47.1830 H      1528  TIP1378     0.2052
 23497 OH2        -15.1900   -21.2740    26.3900 O.3    1529  TIP1379    -0.4105
 23498 H1         -15.3050   -22.1760    26.0890 H      1529  TIP1379     0.2052
 23499 H2         -15.9130   -21.1310    27.0000 H      1529  TIP1379     0.2052
 23500 OH2        -31.9350   -15.7160   -55.4230 O.3    1530  TIP1380    -0.4105
 23501 H1         -31.2260   -16.1550   -55.8940 H      1530  TIP1380     0.2052
 23502 H2         -32.7110   -16.2420   -55.6150 H      1530  TIP1380     0.2052
 23503 OH2          2.1800     4.1840   -26.4300 O.3    1531  TIP1381    -0.4105
 23504 H1           1.9140     3.3010   -26.6860 H      1531  TIP1381     0.2052
 23505 H2           2.1390     4.6910   -27.2400 H      1531  TIP1381     0.2052
 23506 OH2         -2.1290   -29.8250   -21.8520 O.3    1532  TIP1382    -0.4105
 23507 H1          -2.1290   -29.9240   -20.9000 H      1532  TIP1382     0.2052
 23508 H2          -2.9880   -29.4530   -22.0540 H      1532  TIP1382     0.2052
 23509 OH2         -2.3350    -6.7010   -10.6350 O.3    1533  TIP1383    -0.4105
 23510 H1          -2.4630    -5.8420   -10.2330 H      1533  TIP1383     0.2052
 23511 H2          -1.9420    -7.2330    -9.9430 H      1533  TIP1383     0.2052
 23512 OH2         -2.0860     6.1670   -46.5310 O.3    1534  TIP1384    -0.4105
 23513 H1          -1.4240     5.5620   -46.8670 H      1534  TIP1384     0.2052
 23514 H2          -2.3230     6.7060   -47.2860 H      1534  TIP1384     0.2052
 23515 OH2        -10.1320   -32.3370   -32.1420 O.3    1535  TIP1385    -0.4105
 23516 H1         -10.2730   -32.6740   -33.0270 H      1535  TIP1385     0.2052
 23517 H2         -10.4460   -31.4330   -32.1760 H      1535  TIP1385     0.2052
 23518 OH2        -16.8950    19.5790    50.2460 O.3    1536  TIP1386    -0.4105
 23519 H1         -16.7420    19.2610    51.1360 H      1536  TIP1386     0.2052
 23520 H2         -17.2220    20.4710    50.3640 H      1536  TIP1386     0.2052
 23521 OH2        -29.5920   -25.1360   -25.9050 O.3    1537  TIP1387    -0.4105
 23522 H1         -29.6530   -25.8810   -26.5030 H      1537  TIP1387     0.2052
 23523 H2         -28.6890   -25.1560   -25.5890 H      1537  TIP1387     0.2052
 23524 OH2         24.8630   -32.0080    45.1830 O.3    1538  TIP1388    -0.4105
 23525 H1          24.5940   -32.2380    44.2940 H      1538  TIP1388     0.2052
 23526 H2          25.3030   -32.7930    45.5110 H      1538  TIP1388     0.2052
 23527 OH2          2.1750    11.4800    39.8910 O.3    1539  TIP1389    -0.4105
 23528 H1           2.7460    10.7320    39.7150 H      1539  TIP1389     0.2052
 23529 H2           2.5480    12.1940    39.3740 H      1539  TIP1389     0.2052
 23530 OH2         21.3450   -11.9770   -46.0580 O.3    1540  TIP1390    -0.4105
 23531 H1          22.1640   -12.2120   -45.6220 H      1540  TIP1390     0.2052
 23532 H2          20.9670   -12.8150   -46.3270 H      1540  TIP1390     0.2052
 23533 OH2        -17.5680    27.1340    29.8200 O.3    1541  TIP1391    -0.4105
 23534 H1         -18.3870    27.6250    29.8890 H      1541  TIP1391     0.2052
 23535 H2         -16.8900    27.7620    30.0710 H      1541  TIP1391     0.2052
 23536 OH2        -12.8690     8.0490   -47.9600 O.3    1542  TIP1392    -0.4105
 23537 H1         -12.1940     7.7840   -47.3340 H      1542  TIP1392     0.2052
 23538 H2         -13.0050     7.2760   -48.5080 H      1542  TIP1392     0.2052
 23539 OH2          1.9700   -28.2640    47.2530 O.3    1543  TIP1393    -0.4105
 23540 H1           1.0770   -27.9350    47.1490 H      1543  TIP1393     0.2052
 23541 H2           2.5130   -27.6390    46.7730 H      1543  TIP1393     0.2052
 23542 OH2         -4.2080    13.7350   -24.8410 O.3    1544  TIP1394    -0.4105
 23543 H1          -3.9300    14.2010   -25.6300 H      1544  TIP1394     0.2052
 23544 H2          -3.4380    13.7460   -24.2730 H      1544  TIP1394     0.2052
 23545 OH2        -22.6880    10.1980    24.0740 O.3    1545  TIP1395    -0.4105
 23546 H1         -23.3390    10.8790    23.9040 H      1545  TIP1395     0.2052
 23547 H2         -22.1090    10.5780    24.7340 H      1545  TIP1395     0.2052
 23548 OH2          4.0370   -21.8420    46.1260 O.3    1546  TIP1396    -0.4105
 23549 H1           4.4470   -22.6370    45.7860 H      1546  TIP1396     0.2052
 23550 H2           4.6880   -21.4730    46.7230 H      1546  TIP1396     0.2052
 23551 OH2        -19.7680    -5.1920   -37.1650 O.3    1547  TIP1397    -0.4105
 23552 H1         -18.9600    -4.7150   -36.9750 H      1547  TIP1397     0.2052
 23553 H2         -19.8870    -5.0940   -38.1100 H      1547  TIP1397     0.2052
 23554 OH2         27.8940     1.7230    23.9960 O.3    1548  TIP1398    -0.4105
 23555 H1          27.8230     0.8360    24.3480 H      1548  TIP1398     0.2052
 23556 H2          27.0010     1.9480    23.7320 H      1548  TIP1398     0.2052
 23557 OH2         -6.0920    32.3390   -52.6020 O.3    1549  TIP1399    -0.4105
 23558 H1          -6.3790    31.4260   -52.5960 H      1549  TIP1399     0.2052
 23559 H2          -5.9440    32.5510   -51.6810 H      1549  TIP1399     0.2052
 23560 OH2         -9.2190    13.2450    43.1140 O.3    1550  TIP1400    -0.4105
 23561 H1          -9.3120    13.4840    44.0360 H      1550  TIP1400     0.2052
 23562 H2         -10.1160    13.2160    42.7810 H      1550  TIP1400     0.2052
 23563 OH2         11.8480   -30.3380   -22.1160 O.3    1551  TIP1401    -0.4105
 23564 H1          11.2230   -30.5850   -21.4350 H      1551  TIP1401     0.2052
 23565 H2          12.4920   -29.7930   -21.6640 H      1551  TIP1401     0.2052
 23566 OH2        -14.9680     3.8190   -50.4980 O.3    1552  TIP1402    -0.4105
 23567 H1         -15.8470     3.6530   -50.1550 H      1552  TIP1402     0.2052
 23568 H2         -14.9730     3.4250   -51.3700 H      1552  TIP1402     0.2052
 23569 OH2          6.7300   -15.2540   -40.8010 O.3    1553  TIP1403    -0.4105
 23570 H1           7.5130   -15.0370   -40.2950 H      1553  TIP1403     0.2052
 23571 H2           6.1670   -14.4850   -40.7150 H      1553  TIP1403     0.2052
 23572 OH2         -2.8910    14.7950   -52.4500 O.3    1554  TIP1404    -0.4105
 23573 H1          -1.9680    14.6990   -52.6870 H      1554  TIP1404     0.2052
 23574 H2          -3.2290    15.4510   -53.0600 H      1554  TIP1404     0.2052
 23575 OH2        -12.5820   -29.8670    32.5400 O.3    1555  TIP1405    -0.4105
 23576 H1         -12.7110   -30.7730    32.8190 H      1555  TIP1405     0.2052
 23577 H2         -13.0530   -29.8020    31.7090 H      1555  TIP1405     0.2052
 23578 OH2         17.5320   -23.8640    36.1600 O.3    1556  TIP1406    -0.4105
 23579 H1          17.6710   -23.2690    36.8960 H      1556  TIP1406     0.2052
 23580 H2          17.9050   -23.4050    35.4070 H      1556  TIP1406     0.2052
 23581 OH2         24.4800    -9.9830   -34.6440 O.3    1557  TIP1407    -0.4105
 23582 H1          24.7200    -9.1500   -35.0510 H      1557  TIP1407     0.2052
 23583 H2          24.5000   -10.6150   -35.3630 H      1557  TIP1407     0.2052
 23584 OH2         -0.8350   -15.4040    46.6320 O.3    1558  TIP1408    -0.4105
 23585 H1          -1.4280   -14.7380    46.2870 H      1558  TIP1408     0.2052
 23586 H2          -0.8110   -16.0790    45.9530 H      1558  TIP1408     0.2052
 23587 OH2         22.8240    29.9730    49.0700 O.3    1559  TIP1409    -0.4105
 23588 H1          23.1140    29.0660    48.9770 H      1559  TIP1409     0.2052
 23589 H2          21.8690    29.9170    49.1020 H      1559  TIP1409     0.2052
 23590 OH2        -11.3520   -26.9150    49.8730 O.3    1560  TIP1410    -0.4105
 23591 H1         -11.0200   -26.6590    49.0120 H      1560  TIP1410     0.2052
 23592 H2         -10.7290   -27.5710    50.1850 H      1560  TIP1410     0.2052
 23593 OH2        -27.4510     4.9080   -21.7180 O.3    1561  TIP1411    -0.4105
 23594 H1         -28.1790     4.8440   -21.1000 H      1561  TIP1411     0.2052
 23595 H2         -26.7980     5.4420   -21.2660 H      1561  TIP1411     0.2052
 23596 OH2         -3.0920    28.2000    53.3370 O.3    1562  TIP1412    -0.4105
 23597 H1          -2.2040    27.9890    53.6250 H      1562  TIP1412     0.2052
 23598 H2          -3.3150    27.5030    52.7200 H      1562  TIP1412     0.2052
 23599 OH2         27.5060    -1.7440    23.5390 O.3    1563  TIP1413    -0.4105
 23600 H1          27.1310    -1.2450    24.2640 H      1563  TIP1413     0.2052
 23601 H2          26.8290    -1.7310    22.8620 H      1563  TIP1413     0.2052
 23602 OH2         12.6620   -13.1460    45.6190 O.3    1564  TIP1414    -0.4105
 23603 H1          12.9270   -12.4590    46.2300 H      1564  TIP1414     0.2052
 23604 H2          12.4860   -12.6830    44.7990 H      1564  TIP1414     0.2052
 23605 OH2          6.9310    -1.0050   -35.1400 O.3    1565  TIP1415    -0.4105
 23606 H1           6.3340    -1.5290   -35.6740 H      1565  TIP1415     0.2052
 23607 H2           6.5280    -0.9910   -34.2720 H      1565  TIP1415     0.2052
 23608 OH2        -19.0470    -0.4510   -23.1370 O.3    1566  TIP1416    -0.4105
 23609 H1         -19.9380    -0.1030   -23.1230 H      1566  TIP1416     0.2052
 23610 H2         -18.6120     0.0300   -23.8420 H      1566  TIP1416     0.2052
 23611 OH2         26.3220    -3.4170    26.1730 O.3    1567  TIP1417    -0.4105
 23612 H1          26.7950    -4.1520    25.7830 H      1567  TIP1417     0.2052
 23613 H2          25.4230    -3.5170    25.8620 H      1567  TIP1417     0.2052
 23614 OH2        -30.2350    23.0550    24.6770 O.3    1568  TIP1418    -0.4105
 23615 H1         -30.6720    23.8690    24.9260 H      1568  TIP1418     0.2052
 23616 H2         -29.3060    23.2820    24.6450 H      1568  TIP1418     0.2052
 23617 OH2         -8.3170    -5.4370    38.4550 O.3    1569  TIP1419    -0.4105
 23618 H1          -9.1920    -5.4390    38.8430 H      1569  TIP1419     0.2052
 23619 H2          -8.3290    -4.7010    37.8420 H      1569  TIP1419     0.2052
 23620 OH2          0.0130   -15.1640   -43.4750 O.3    1570  TIP1420    -0.4105
 23621 H1           0.2900   -15.9530   -43.0090 H      1570  TIP1420     0.2052
 23622 H2           0.4170   -15.2410   -44.3400 H      1570  TIP1420     0.2052
 23623 OH2         -3.9670   -31.3760    23.7440 O.3    1571  TIP1421    -0.4105
 23624 H1          -3.2810   -31.7740    23.2090 H      1571  TIP1421     0.2052
 23625 H2          -3.7740   -31.6660    24.6360 H      1571  TIP1421     0.2052
 23626 OH2        -24.1400    28.1360   -54.0140 O.3    1572  TIP1422    -0.4105
 23627 H1         -24.3500    27.2740   -54.3730 H      1572  TIP1422     0.2052
 23628 H2         -24.6400    28.7490   -54.5530 H      1572  TIP1422     0.2052
 23629 OH2         14.9590    30.2340   -32.6680 O.3    1573  TIP1423    -0.4105
 23630 H1          14.6310    30.4140   -33.5490 H      1573  TIP1423     0.2052
 23631 H2          14.8430    29.2910   -32.5560 H      1573  TIP1423     0.2052
 23632 OH2        -10.3660    14.7920   -28.8330 O.3    1574  TIP1424    -0.4105
 23633 H1         -10.3160    14.0880   -29.4800 H      1574  TIP1424     0.2052
 23634 H2         -10.9230    14.4390   -28.1380 H      1574  TIP1424     0.2052
 23635 OH2        -21.7370   -26.9840    33.9070 O.3    1575  TIP1425    -0.4105
 23636 H1         -22.2120   -26.7550    34.7050 H      1575  TIP1425     0.2052
 23637 H2         -21.4460   -26.1450    33.5510 H      1575  TIP1425     0.2052
 23638 OH2         27.8160    -7.8530   -47.9010 O.3    1576  TIP1426    -0.4105
 23639 H1          27.3720    -7.9500   -48.7440 H      1576  TIP1426     0.2052
 23640 H2          27.9100    -6.9080   -47.7870 H      1576  TIP1426     0.2052
 23641 OH2        -25.1250     3.0040    55.1860 O.3    1577  TIP1427    -0.4105
 23642 H1         -25.9760     2.6300    54.9580 H      1577  TIP1427     0.2052
 23643 H2         -24.4960     2.5060    54.6650 H      1577  TIP1427     0.2052
 23644 OH2         12.4910   -13.2200    36.1730 O.3    1578  TIP1428    -0.4105
 23645 H1          12.4510   -13.6370    35.3130 H      1578  TIP1428     0.2052
 23646 H2          12.8160   -12.3370    35.9980 H      1578  TIP1428     0.2052
 23647 OH2          0.1820    29.3920   -31.0440 O.3    1579  TIP1429    -0.4105
 23648 H1          -0.4750    30.0870   -31.0100 H      1579  TIP1429     0.2052
 23649 H2           0.0980    29.0250   -31.9250 H      1579  TIP1429     0.2052
 23650 OH2         12.6970   -32.3970   -50.7480 O.3    1580  TIP1430    -0.4105
 23651 H1          12.4130   -33.0800   -50.1410 H      1580  TIP1430     0.2052
 23652 H2          13.2970   -31.8550   -50.2360 H      1580  TIP1430     0.2052
 23653 OH2         23.7170    -3.3270   -40.4280 O.3    1581  TIP1431    -0.4105
 23654 H1          24.4680    -2.9800   -39.9470 H      1581  TIP1431     0.2052
 23655 H2          24.0950    -3.7160   -41.2170 H      1581  TIP1431     0.2052
 23656 OH2         24.7830   -29.1300    44.8180 O.3    1582  TIP1432    -0.4105
 23657 H1          24.1030   -28.9530    44.1680 H      1582  TIP1432     0.2052
 23658 H2          24.9300   -30.0740    44.7620 H      1582  TIP1432     0.2052
 23659 OH2         14.8680   -22.1260   -16.4160 O.3    1583  TIP1433    -0.4105
 23660 H1          15.0440   -22.7470   -17.1230 H      1583  TIP1433     0.2052
 23661 H2          14.1230   -22.5010   -15.9470 H      1583  TIP1433     0.2052
 23662 OH2          0.3700     2.4880    -7.0580 O.3    1584  TIP1434    -0.4105
 23663 H1          -0.5480     2.5150    -7.3280 H      1584  TIP1434     0.2052
 23664 H2           0.4770     3.2560    -6.4980 H      1584  TIP1434     0.2052
 23665 OH2        -16.2220    -0.9620    22.6550 O.3    1585  TIP1435    -0.4105
 23666 H1         -16.1870    -1.8920    22.8790 H      1585  TIP1435     0.2052
 23667 H2         -17.1550    -0.7740    22.5540 H      1585  TIP1435     0.2052
 23668 OH2         28.9620    25.1360    20.3870 O.3    1586  TIP1436    -0.4105
 23669 H1          28.7000    25.8310    20.9900 H      1586  TIP1436     0.2052
 23670 H2          29.9080    25.2480    20.2870 H      1586  TIP1436     0.2052
 23671 OH2        -19.4020     3.9080    20.3090 O.3    1587  TIP1437    -0.4105
 23672 H1         -18.5620     3.5770    20.6270 H      1587  TIP1437     0.2052
 23673 H2         -20.0540     3.4790    20.8640 H      1587  TIP1437     0.2052
 23674 OH2         24.8110    13.9890    30.2500 O.3    1588  TIP1438    -0.4105
 23675 H1          25.3350    13.3300    30.7060 H      1588  TIP1438     0.2052
 23676 H2          24.7610    14.7220    30.8630 H      1588  TIP1438     0.2052
 23677 OH2          3.7450    13.9140   -39.5800 O.3    1589  TIP1439    -0.4105
 23678 H1           4.6330    14.0290   -39.9180 H      1589  TIP1439     0.2052
 23679 H2           3.3500    13.2630   -40.1590 H      1589  TIP1439     0.2052
 23680 OH2         25.2150     8.5180   -44.6850 O.3    1590  TIP1440    -0.4105
 23681 H1          26.1500     8.6950   -44.7950 H      1590  TIP1440     0.2052
 23682 H2          25.1530     7.5640   -44.6600 H      1590  TIP1440     0.2052
 23683 OH2        -10.5350   -15.0000    52.4840 O.3    1591  TIP1441    -0.4105
 23684 H1          -9.6780   -15.3340    52.2200 H      1591  TIP1441     0.2052
 23685 H2         -10.4000   -14.6660    53.3710 H      1591  TIP1441     0.2052
 23686 OH2        -13.1800    16.1450   -26.7960 O.3    1592  TIP1442    -0.4105
 23687 H1         -13.7110    16.0010   -26.0120 H      1592  TIP1442     0.2052
 23688 H2         -12.7240    15.3140   -26.9310 H      1592  TIP1442     0.2052
 23689 OH2         -8.9470    -2.4320    37.9570 O.3    1593  TIP1443    -0.4105
 23690 H1          -9.7830    -2.7520    37.6180 H      1593  TIP1443     0.2052
 23691 H2          -8.5060    -2.0580    37.1940 H      1593  TIP1443     0.2052
 23692 OH2          2.1470    16.2150    32.2330 O.3    1594  TIP1444    -0.4105
 23693 H1           2.0010    15.6070    32.9570 H      1594  TIP1444     0.2052
 23694 H2           2.8870    16.7520    32.5160 H      1594  TIP1444     0.2052
 23695 OH2          7.3620   -32.7370    32.0020 O.3    1595  TIP1445    -0.4105
 23696 H1           6.5750   -32.7030    31.4580 H      1595  TIP1445     0.2052
 23697 H2           7.1520   -33.3710    32.6880 H      1595  TIP1445     0.2052
 23698 OH2         -5.3010    15.0040    30.5510 O.3    1596  TIP1446    -0.4105
 23699 H1          -5.2160    15.9200    30.8170 H      1596  TIP1446     0.2052
 23700 H2          -6.1280    14.9690    30.0700 H      1596  TIP1446     0.2052
 23701 OH2         32.2710    -5.4310   -30.9200 O.3    1597  TIP1447    -0.4105
 23702 H1          33.0800    -5.5510   -31.4180 H      1597  TIP1447     0.2052
 23703 H2          32.3550    -4.5610   -30.5310 H      1597  TIP1447     0.2052
 23704 OH2         16.8280    -9.8850    36.7490 O.3    1598  TIP1448    -0.4105
 23705 H1          17.7140    -9.6170    36.5050 H      1598  TIP1448     0.2052
 23706 H2          16.5500    -9.2340    37.3940 H      1598  TIP1448     0.2052
 23707 OH2         -2.8550    22.5140   -55.0440 O.3    1599  TIP1449    -0.4105
 23708 H1          -3.7600    22.3460   -55.3070 H      1599  TIP1449     0.2052
 23709 H2          -2.9270    22.9080   -54.1750 H      1599  TIP1449     0.2052
 23710 OH2         -0.9730    30.8440    22.9460 O.3    1600  TIP1450    -0.4105
 23711 H1          -1.6990    30.7630    23.5640 H      1600  TIP1450     0.2052
 23712 H2          -1.2810    31.4740    22.2950 H      1600  TIP1450     0.2052
 23713 OH2         -0.6020   -20.3500    46.6580 O.3    1601  TIP1451    -0.4105
 23714 H1           0.0120   -19.8320    46.1380 H      1601  TIP1451     0.2052
 23715 H2          -0.8230   -19.7870    47.4000 H      1601  TIP1451     0.2052
 23716 OH2         -2.5160   -16.2780   -26.0650 O.3    1602  TIP1452    -0.4105
 23717 H1          -2.2640   -17.0370   -25.5400 H      1602  TIP1452     0.2052
 23718 H2          -2.3200   -16.5330   -26.9660 H      1602  TIP1452     0.2052
 23719 OH2        -15.5470   -23.6860    39.7850 O.3    1603  TIP1453    -0.4105
 23720 H1         -16.0920   -24.1800    40.3970 H      1603  TIP1453     0.2052
 23721 H2         -15.2580   -24.3340    39.1430 H      1603  TIP1453     0.2052
 23722 OH2          2.8090     0.2210    38.4180 O.3    1604  TIP1454    -0.4105
 23723 H1           2.8700    -0.0920    39.3210 H      1604  TIP1454     0.2052
 23724 H2           2.4560    -0.5220    37.9300 H      1604  TIP1454     0.2052
 23725 OH2          8.4830    12.7940    34.4920 O.3    1605  TIP1455    -0.4105
 23726 H1           8.3460    12.1040    35.1410 H      1605  TIP1455     0.2052
 23727 H2           7.7840    13.4260    34.6630 H      1605  TIP1455     0.2052
 23728 OH2         -5.9940    24.5160    20.0640 O.3    1606  TIP1456    -0.4105
 23729 H1          -5.4560    23.8450    19.6450 H      1606  TIP1456     0.2052
 23730 H2          -5.3630    25.1330    20.4350 H      1606  TIP1456     0.2052
 23731 OH2        -32.6430   -18.6500   -35.1160 O.3    1607  TIP1457    -0.4105
 23732 H1         -31.9110   -18.1570   -34.7440 H      1607  TIP1457     0.2052
 23733 H2         -33.3690   -18.4920   -34.5140 H      1607  TIP1457     0.2052
 23734 OH2         -6.2890    13.8490   -37.4610 O.3    1608  TIP1458    -0.4105
 23735 H1          -6.6880    14.6820   -37.7140 H      1608  TIP1458     0.2052
 23736 H2          -6.9090    13.1850   -37.7630 H      1608  TIP1458     0.2052
 23737 OH2        -24.5100    17.6730    24.7710 O.3    1609  TIP1459    -0.4105
 23738 H1         -24.7530    17.2640    23.9410 H      1609  TIP1459     0.2052
 23739 H2         -24.2060    18.5480    24.5290 H      1609  TIP1459     0.2052
 23740 OH2         22.6360   -20.5010    38.2240 O.3    1610  TIP1460    -0.4105
 23741 H1          23.1930   -20.5080    37.4450 H      1610  TIP1460     0.2052
 23742 H2          22.4820   -19.5730    38.4000 H      1610  TIP1460     0.2052
 23743 OH2        -12.1800    -3.1650   -38.3440 O.3    1611  TIP1461    -0.4105
 23744 H1         -12.4610    -4.0150   -38.0030 H      1611  TIP1461     0.2052
 23745 H2         -11.3420    -2.9990   -37.9120 H      1611  TIP1461     0.2052
 23746 OH2         10.2630   -10.1230   -29.9610 O.3    1612  TIP1462    -0.4105
 23747 H1           9.4220   -10.5700   -30.0560 H      1612  TIP1462     0.2052
 23748 H2          10.2590    -9.4570   -30.6480 H      1612  TIP1462     0.2052
 23749 OH2         31.1640    -6.8060    47.5110 O.3    1613  TIP1463    -0.4105
 23750 H1          31.2500    -7.2150    48.3720 H      1613  TIP1463     0.2052
 23751 H2          31.5090    -7.4590    46.9010 H      1613  TIP1463     0.2052
 23752 OH2         25.7350     2.1180    48.7990 O.3    1614  TIP1464    -0.4105
 23753 H1          26.4960     2.5900    48.4620 H      1614  TIP1464     0.2052
 23754 H2          25.9170     1.1990    48.6030 H      1614  TIP1464     0.2052
 23755 OH2         23.6270   -16.8590    30.9020 O.3    1615  TIP1465    -0.4105
 23756 H1          23.2240   -16.0480    30.5920 H      1615  TIP1465     0.2052
 23757 H2          24.0000   -17.2570    30.1150 H      1615  TIP1465     0.2052
 23758 OH2        -17.3610    28.6480   -29.9090 O.3    1616  TIP1466    -0.4105
 23759 H1         -17.7970    27.9080   -29.4880 H      1616  TIP1466     0.2052
 23760 H2         -16.4410    28.5560   -29.6630 H      1616  TIP1466     0.2052
 23761 OH2        -13.7320     0.0550    32.2070 O.3    1617  TIP1467    -0.4105
 23762 H1         -13.4710     0.4880    33.0200 H      1617  TIP1467     0.2052
 23763 H2         -14.6680    -0.1130    32.3140 H      1617  TIP1467     0.2052
 23764 OH2          4.2980   -18.2910   -37.4100 O.3    1618  TIP1468    -0.4105
 23765 H1           4.7380   -18.1550   -38.2490 H      1618  TIP1468     0.2052
 23766 H2           4.6800   -17.6330   -36.8300 H      1618  TIP1468     0.2052
 23767 OH2        -16.3760     3.9360   -29.0830 O.3    1619  TIP1469    -0.4105
 23768 H1         -15.8720     3.6090   -29.8290 H      1619  TIP1469     0.2052
 23769 H2         -17.2660     4.0360   -29.4210 H      1619  TIP1469     0.2052
 23770 OH2         21.0070   -26.4460   -54.2790 O.3    1620  TIP1470    -0.4105
 23771 H1          20.1550   -26.0540   -54.4700 H      1620  TIP1470     0.2052
 23772 H2          21.6420   -25.8170   -54.6210 H      1620  TIP1470     0.2052
 23773 OH2         17.5990   -15.6760   -50.8160 O.3    1621  TIP1471    -0.4105
 23774 H1          16.9120   -16.3280   -50.9560 H      1621  TIP1471     0.2052
 23775 H2          18.3620   -16.1850   -50.5430 H      1621  TIP1471     0.2052
 23776 OH2          3.7460   -25.5410   -23.8360 O.3    1622  TIP1472    -0.4105
 23777 H1           3.5840   -25.7840   -24.7480 H      1622  TIP1472     0.2052
 23778 H2           2.9500   -25.8010   -23.3730 H      1622  TIP1472     0.2052
 23779 OH2        -24.7440   -15.7940    15.9800 O.3    1623  TIP1473    -0.4105
 23780 H1         -24.1050   -15.2120    16.3910 H      1623  TIP1473     0.2052
 23781 H2         -25.5940   -15.4580    16.2640 H      1623  TIP1473     0.2052
 23782 OH2         -8.1390   -17.1160    46.6950 O.3    1624  TIP1474    -0.4105
 23783 H1          -8.9780   -16.8560    46.3140 H      1624  TIP1474     0.2052
 23784 H2          -8.2330   -16.9320    47.6300 H      1624  TIP1474     0.2052
 23785 OH2          7.4850   -11.1000   -21.5960 O.3    1625  TIP1475    -0.4105
 23786 H1           7.5970   -11.9150   -22.0850 H      1625  TIP1475     0.2052
 23787 H2           8.3740   -10.7600   -21.4910 H      1625  TIP1475     0.2052
 23788 OH2         -8.4910    25.8740   -49.2120 O.3    1626  TIP1476    -0.4105
 23789 H1          -8.2010    26.2330   -48.3730 H      1626  TIP1476     0.2052
 23790 H2          -7.9160    26.2820   -49.8600 H      1626  TIP1476     0.2052
 23791 OH2         16.5130    -5.7000    49.2160 O.3    1627  TIP1477    -0.4105
 23792 H1          17.1340    -6.0800    48.5950 H      1627  TIP1477     0.2052
 23793 H2          16.2890    -4.8480    48.8400 H      1627  TIP1477     0.2052
 23794 OH2         23.1710    -5.0080    18.7640 O.3    1628  TIP1478    -0.4105
 23795 H1          22.9820    -4.4380    18.0190 H      1628  TIP1478     0.2052
 23796 H2          22.4170    -5.5960    18.8140 H      1628  TIP1478     0.2052
 23797 OH2        -11.5180    23.5930    19.2700 O.3    1629  TIP1479    -0.4105
 23798 H1         -11.1290    23.0690    18.5700 H      1629  TIP1479     0.2052
 23799 H2         -11.4610    23.0350    20.0460 H      1629  TIP1479     0.2052
 23800 OH2         26.7540   -31.0720   -46.5810 O.3    1630  TIP1480    -0.4105
 23801 H1          27.3660   -31.8090   -46.5730 H      1630  TIP1480     0.2052
 23802 H2          26.2760   -31.1480   -45.7550 H      1630  TIP1480     0.2052
 23803 OH2         32.8260   -29.7690    54.8510 O.3    1631  TIP1481    -0.4105
 23804 H1          33.3570   -29.4630    54.1160 H      1631  TIP1481     0.2052
 23805 H2          33.0500   -29.1790    55.5710 H      1631  TIP1481     0.2052
 23806 OH2         28.8840     0.1820    27.2090 O.3    1632  TIP1482    -0.4105
 23807 H1          29.1260     0.7260    27.9590 H      1632  TIP1482     0.2052
 23808 H2          27.9410     0.3140    27.1120 H      1632  TIP1482     0.2052
 23809 OH2         30.6090    21.2860    25.9960 O.3    1633  TIP1483    -0.4105
 23810 H1          31.3580    21.4170    26.5770 H      1633  TIP1483     0.2052
 23811 H2          30.8360    21.7660    25.2000 H      1633  TIP1483     0.2052
 23812 OH2        -15.1410   -17.1060   -33.9680 O.3    1634  TIP1484    -0.4105
 23813 H1         -14.9200   -16.2990   -34.4340 H      1634  TIP1484     0.2052
 23814 H2         -15.7240   -17.5760   -34.5650 H      1634  TIP1484     0.2052
 23815 OH2         17.9240    15.9730   -47.8660 O.3    1635  TIP1485    -0.4105
 23816 H1          17.1020    15.6640   -48.2470 H      1635  TIP1485     0.2052
 23817 H2          18.1760    15.2850   -47.2500 H      1635  TIP1485     0.2052
 23818 OH2         30.6210    19.3790   -46.9230 O.3    1636  TIP1486    -0.4105
 23819 H1          30.7480    18.8230   -47.6910 H      1636  TIP1486     0.2052
 23820 H2          30.4750    18.7650   -46.2030 H      1636  TIP1486     0.2052
 23821 OH2         29.9580    21.5280   -41.5240 O.3    1637  TIP1487    -0.4105
 23822 H1          30.1440    20.9000   -40.8260 H      1637  TIP1487     0.2052
 23823 H2          29.4590    22.2230   -41.0950 H      1637  TIP1487     0.2052
 23824 OH2        -20.7840     5.5910   -36.2720 O.3    1638  TIP1488    -0.4105
 23825 H1         -20.2020     6.3440   -36.1680 H      1638  TIP1488     0.2052
 23826 H2         -21.6350     5.9740   -36.4850 H      1638  TIP1488     0.2052
 23827 OH2        -29.6150    15.5700   -32.6670 O.3    1639  TIP1489    -0.4105
 23828 H1         -30.0920    14.8350   -33.0520 H      1639  TIP1489     0.2052
 23829 H2         -30.2360    16.2970   -32.6880 H      1639  TIP1489     0.2052
 23830 OH2         30.8720     1.0510    25.2630 O.3    1640  TIP1490    -0.4105
 23831 H1          31.2990     1.7670    25.7330 H      1640  TIP1490     0.2052
 23832 H2          30.1880     0.7470    25.8590 H      1640  TIP1490     0.2052
 23833 OH2         14.1020   -21.1610    50.9160 O.3    1641  TIP1491    -0.4105
 23834 H1          14.3460   -20.2670    51.1550 H      1641  TIP1491     0.2052
 23835 H2          14.1830   -21.1850    49.9620 H      1641  TIP1491     0.2052
 23836 OH2        -29.2270   -19.1230    49.3110 O.3    1642  TIP1492    -0.4105
 23837 H1         -28.3130   -18.8870    49.4680 H      1642  TIP1492     0.2052
 23838 H2         -29.2840   -20.0440    49.5640 H      1642  TIP1492     0.2052
 23839 OH2         12.8670     7.1050   -45.5800 O.3    1643  TIP1493    -0.4105
 23840 H1          13.3050     6.4980   -44.9840 H      1643  TIP1493     0.2052
 23841 H2          11.9340     6.9600   -45.4270 H      1643  TIP1493     0.2052
 23842 OH2         22.1770   -23.0430   -28.2500 O.3    1644  TIP1494    -0.4105
 23843 H1          22.8870   -23.4520   -27.7560 H      1644  TIP1494     0.2052
 23844 H2          21.6290   -23.7750   -28.5320 H      1644  TIP1494     0.2052
 23845 OH2         19.9390    30.4320   -47.1530 O.3    1645  TIP1495    -0.4105
 23846 H1          19.9300    31.0370   -46.4110 H      1645  TIP1495     0.2052
 23847 H2          20.1280    29.5780   -46.7640 H      1645  TIP1495     0.2052
 23848 OH2         22.4250    15.7300   -40.2250 O.3    1646  TIP1496    -0.4105
 23849 H1          21.6730    15.8200   -40.8100 H      1646  TIP1496     0.2052
 23850 H2          22.7690    16.6190   -40.1390 H      1646  TIP1496     0.2052
 23851 OH2        -27.1100   -18.7610   -43.9930 O.3    1647  TIP1497    -0.4105
 23852 H1         -26.1740   -18.7870   -43.7960 H      1647  TIP1497     0.2052
 23853 H2         -27.2490   -17.9000   -44.3860 H      1647  TIP1497     0.2052
 23854 OH2        -26.4990   -29.6430   -24.9690 O.3    1648  TIP1498    -0.4105
 23855 H1         -27.2720   -30.1920   -24.8370 H      1648  TIP1498     0.2052
 23856 H2         -25.7590   -30.2230   -24.7880 H      1648  TIP1498     0.2052
 23857 OH2         -3.2440   -30.5800   -26.9880 O.3    1649  TIP1499    -0.4105
 23858 H1          -3.2530   -29.7410   -26.5280 H      1649  TIP1499     0.2052
 23859 H2          -3.2470   -31.2360   -26.2910 H      1649  TIP1499     0.2052
 23860 OH2        -13.1520   -17.6830   -51.8430 O.3    1650  TIP1500    -0.4105
 23861 H1         -13.7740   -17.0980   -51.4120 H      1650  TIP1500     0.2052
 23862 H2         -12.4590   -17.8160   -51.1960 H      1650  TIP1500     0.2052
 23863 OH2        -18.3670    -0.0960   -33.7250 O.3    1651  TIP1501    -0.4105
 23864 H1         -18.9680    -0.8220   -33.8950 H      1651  TIP1501     0.2052
 23865 H2         -17.8560    -0.3810   -32.9670 H      1651  TIP1501     0.2052
 23866 OH2         28.1680    26.0030   -25.3890 O.3    1652  TIP1502    -0.4105
 23867 H1          27.8300    25.2240   -25.8310 H      1652  TIP1502     0.2052
 23868 H2          28.2460    25.7430   -24.4710 H      1652  TIP1502     0.2052
 23869 OH2         11.3940   -24.8270    33.2810 O.3    1653  TIP1503    -0.4105
 23870 H1          11.2030   -24.4450    32.4240 H      1653  TIP1503     0.2052
 23871 H2          11.8890   -25.6220    33.0830 H      1653  TIP1503     0.2052
 23872 OH2         26.1440    22.7020    26.4680 O.3    1654  TIP1504    -0.4105
 23873 H1          26.9880    23.0020    26.1330 H      1654  TIP1504     0.2052
 23874 H2          26.1320    21.7630    26.2840 H      1654  TIP1504     0.2052
 23875 OH2        -24.5350    19.2650    27.5660 O.3    1655  TIP1505    -0.4105
 23876 H1         -23.6950    19.6550    27.3250 H      1655  TIP1505     0.2052
 23877 H2         -24.7640    18.7100    26.8200 H      1655  TIP1505     0.2052
 23878 OH2         24.5580   -32.7750   -52.4800 O.3    1656  TIP1506    -0.4105
 23879 H1          24.3750   -31.8720   -52.7400 H      1656  TIP1506     0.2052
 23880 H2          24.4400   -32.7790   -51.5300 H      1656  TIP1506     0.2052
 23881 OH2        -23.8120   -28.0950   -48.2380 O.3    1657  TIP1507    -0.4105
 23882 H1         -24.1450   -27.6080   -48.9910 H      1657  TIP1507     0.2052
 23883 H2         -24.5970   -28.3810   -47.7710 H      1657  TIP1507     0.2052
 23884 OH2          0.9090    -9.0430   -51.3250 O.3    1658  TIP1508    -0.4105
 23885 H1           1.7870    -9.1190   -51.6990 H      1658  TIP1508     0.2052
 23886 H2           0.3760    -8.6830   -52.0340 H      1658  TIP1508     0.2052
 23887 OH2        -15.1420   -31.2110   -33.8540 O.3    1659  TIP1509    -0.4105
 23888 H1         -15.0440   -30.9840   -32.9300 H      1659  TIP1509     0.2052
 23889 H2         -16.0310   -31.5610   -33.9220 H      1659  TIP1509     0.2052
 23890 OH2          0.3850    -8.6000    26.2960 O.3    1660  TIP1510    -0.4105
 23891 H1          -0.5340    -8.7140    26.0540 H      1660  TIP1510     0.2052
 23892 H2           0.6700    -7.8310    25.8020 H      1660  TIP1510     0.2052
 23893 OH2        -12.0680   -29.2820   -33.4320 O.3    1661  TIP1511    -0.4105
 23894 H1         -11.8790   -29.5010   -32.5200 H      1661  TIP1511     0.2052
 23895 H2         -11.4920   -28.5430   -33.6260 H      1661  TIP1511     0.2052
 23896 OH2        -21.8150   -26.2920   -28.4000 O.3    1662  TIP1512    -0.4105
 23897 H1         -20.9110   -26.1570   -28.1160 H      1662  TIP1512     0.2052
 23898 H2         -21.8460   -25.9280   -29.2850 H      1662  TIP1512     0.2052
 23899 OH2         24.9170    10.4490    38.5240 O.3    1663  TIP1513    -0.4105
 23900 H1          24.4930     9.7860    39.0690 H      1663  TIP1513     0.2052
 23901 H2          24.1920    10.9310    38.1260 H      1663  TIP1513     0.2052
 23902 OH2         31.1930    14.7900    48.1230 O.3    1664  TIP1514    -0.4105
 23903 H1          30.8300    14.4440    47.3070 H      1664  TIP1514     0.2052
 23904 H2          31.1930    14.0430    48.7210 H      1664  TIP1514     0.2052
 23905 OH2        -22.2470   -11.3050   -52.0350 O.3    1665  TIP1515    -0.4105
 23906 H1         -21.3220   -11.2660   -52.2780 H      1665  TIP1515     0.2052
 23907 H2         -22.6030   -12.0220   -52.5590 H      1665  TIP1515     0.2052
 23908 OH2         31.3740     7.7840   -23.2090 O.3    1666  TIP1516    -0.4105
 23909 H1          30.6260     7.5100   -22.6790 H      1666  TIP1516     0.2052
 23910 H2          32.0170     8.0980   -22.5740 H      1666  TIP1516     0.2052
 23911 OH2        -19.1140    19.5070   -37.3600 O.3    1667  TIP1517    -0.4105
 23912 H1         -18.7070    19.8440   -38.1580 H      1667  TIP1517     0.2052
 23913 H2         -20.0000    19.8690   -37.3710 H      1667  TIP1517     0.2052
 23914 OH2          8.3830    16.9910    48.8730 O.3    1668  TIP1518    -0.4105
 23915 H1           8.1970    17.9300    48.8970 H      1668  TIP1518     0.2052
 23916 H2           8.6460    16.7760    49.7680 H      1668  TIP1518     0.2052
 23917 OH2         -6.9160    23.7750    53.4250 O.3    1669  TIP1519    -0.4105
 23918 H1          -7.5610    24.3530    53.0180 H      1669  TIP1519     0.2052
 23919 H2          -7.3290    23.4910    54.2410 H      1669  TIP1519     0.2052
 23920 OH2        -29.6400     8.0910   -44.8490 O.3    1670  TIP1520    -0.4105
 23921 H1         -30.0200     7.2210   -44.7280 H      1670  TIP1520     0.2052
 23922 H2         -30.1060     8.6460   -44.2240 H      1670  TIP1520     0.2052
 23923 OH2          5.0800   -13.9250   -35.3300 O.3    1671  TIP1521    -0.4105
 23924 H1           5.8570   -13.3700   -35.4030 H      1671  TIP1521     0.2052
 23925 H2           4.4400   -13.5180   -35.9140 H      1671  TIP1521     0.2052
 23926 OH2        -23.1890   -24.8620    54.7300 O.3    1672  TIP1522    -0.4105
 23927 H1         -23.6790   -25.1200    55.5110 H      1672  TIP1522     0.2052
 23928 H2         -22.5610   -24.2120    55.0450 H      1672  TIP1522     0.2052
 23929 OH2          9.0570   -24.7890   -44.8030 O.3    1673  TIP1523    -0.4105
 23930 H1           9.1020   -24.1370   -44.1040 H      1673  TIP1523     0.2052
 23931 H2           8.4840   -24.3970   -45.4610 H      1673  TIP1523     0.2052
 23932 OH2          9.6910    20.1520    25.1700 O.3    1674  TIP1524    -0.4105
 23933 H1           9.5990    20.2980    24.2280 H      1674  TIP1524     0.2052
 23934 H2           9.5040    21.0040    25.5640 H      1674  TIP1524     0.2052
 23935 OH2          7.1820    19.1030    35.4480 O.3    1675  TIP1525    -0.4105
 23936 H1           6.4740    19.6800    35.1630 H      1675  TIP1525     0.2052
 23937 H2           7.8040    19.1090    34.7210 H      1675  TIP1525     0.2052
 23938 OH2          0.8740    23.2340   -36.0240 O.3    1676  TIP1526    -0.4105
 23939 H1           1.6630    22.7030   -35.9130 H      1676  TIP1526     0.2052
 23940 H2           0.3860    23.1130   -35.2100 H      1676  TIP1526     0.2052
 23941 OH2         24.2130   -18.3490   -33.8740 O.3    1677  TIP1527    -0.4105
 23942 H1          23.4280   -18.8890   -33.7900 H      1677  TIP1527     0.2052
 23943 H2          23.8840   -17.4820   -34.1120 H      1677  TIP1527     0.2052
 23944 OH2         31.1080   -19.5670    40.3270 O.3    1678  TIP1528    -0.4105
 23945 H1          32.0130   -19.3820    40.0770 H      1678  TIP1528     0.2052
 23946 H2          30.7910   -18.7470    40.7050 H      1678  TIP1528     0.2052
 23947 OH2         28.9230    -2.4340    26.6790 O.3    1679  TIP1529    -0.4105
 23948 H1          28.7170    -1.5250    26.8950 H      1679  TIP1529     0.2052
 23949 H2          28.1740    -2.7350    26.1640 H      1679  TIP1529     0.2052
 23950 OH2         19.9970    -9.3430   -42.1590 O.3    1680  TIP1530    -0.4105
 23951 H1          20.7750    -9.6920   -41.7240 H      1680  TIP1530     0.2052
 23952 H2          19.6330   -10.0900   -42.6340 H      1680  TIP1530     0.2052
 23953 OH2        -11.4480   -27.0740    24.3670 O.3    1681  TIP1531    -0.4105
 23954 H1         -11.4970   -26.6350    23.5180 H      1681  TIP1531     0.2052
 23955 H2         -11.0510   -26.4270    24.9490 H      1681  TIP1531     0.2052
 23956 OH2         -8.2230   -27.0540    42.8490 O.3    1682  TIP1532    -0.4105
 23957 H1          -7.5180   -27.6520    43.0950 H      1682  TIP1532     0.2052
 23958 H2          -9.0150   -27.4580    43.2020 H      1682  TIP1532     0.2052
 23959 OH2        -28.7520   -15.7580   -32.1100 O.3    1683  TIP1533    -0.4105
 23960 H1         -28.3410   -15.5260   -32.9430 H      1683  TIP1533     0.2052
 23961 H2         -29.3990   -15.0680   -31.9610 H      1683  TIP1533     0.2052
 23962 OH2         -0.7600    11.1180   -40.4670 O.3    1684  TIP1534    -0.4105
 23963 H1          -0.9310    11.9250   -39.9810 H      1684  TIP1534     0.2052
 23964 H2           0.0220    10.7510   -40.0550 H      1684  TIP1534     0.2052
 23965 OH2         20.5250   -19.8620   -51.3280 O.3    1685  TIP1535    -0.4105
 23966 H1          21.3770   -19.4360   -51.4190 H      1685  TIP1535     0.2052
 23967 H2          19.9050   -19.2430   -51.7150 H      1685  TIP1535     0.2052
 23968 OH2        -27.1740    26.2250    46.7670 O.3    1686  TIP1536    -0.4105
 23969 H1         -27.4550    26.8820    46.1300 H      1686  TIP1536     0.2052
 23970 H2         -27.2110    26.6780    47.6100 H      1686  TIP1536     0.2052
 23971 OH2         -7.3060   -20.1860   -22.5540 O.3    1687  TIP1537    -0.4105
 23972 H1          -8.2000   -19.8540   -22.4690 H      1687  TIP1537     0.2052
 23973 H2          -7.1370   -20.6340   -21.7250 H      1687  TIP1537     0.2052
 23974 OH2         23.3890   -27.8920    42.3640 O.3    1688  TIP1538    -0.4105
 23975 H1          23.7950   -27.5110    41.5850 H      1688  TIP1538     0.2052
 23976 H2          23.2010   -28.7970    42.1180 H      1688  TIP1538     0.2052
 23977 OH2          7.5180    29.1700   -46.1940 O.3    1689  TIP1539    -0.4105
 23978 H1           6.8240    28.5270   -46.0460 H      1689  TIP1539     0.2052
 23979 H2           7.1110    29.8400   -46.7430 H      1689  TIP1539     0.2052
 23980 OH2         21.6040   -17.9640    38.5890 O.3    1690  TIP1540    -0.4105
 23981 H1          20.9450   -17.3760    38.2210 H      1690  TIP1540     0.2052
 23982 H2          21.6180   -17.7550    39.5230 H      1690  TIP1540     0.2052
 23983 OH2        -15.7430    12.9070    20.4560 O.3    1691  TIP1541    -0.4105
 23984 H1         -14.8300    12.7180    20.2390 H      1691  TIP1541     0.2052
 23985 H2         -15.8350    13.8480    20.3060 H      1691  TIP1541     0.2052
 23986 OH2        -23.9540    16.8140   -32.9060 O.3    1692  TIP1542    -0.4105
 23987 H1         -24.7660    17.3200   -32.9250 H      1692  TIP1542     0.2052
 23988 H2         -23.9240    16.3760   -33.7570 H      1692  TIP1542     0.2052
 23989 OH2         -0.9780    24.9940   -54.9920 O.3    1693  TIP1543    -0.4105
 23990 H1          -1.3560    24.1170   -55.0420 H      1693  TIP1543     0.2052
 23991 H2          -1.4520    25.4200   -54.2770 H      1693  TIP1543     0.2052
 23992 OH2         -3.4910   -13.6850    45.7150 O.3    1694  TIP1544    -0.4105
 23993 H1          -4.0050   -14.3010    46.2360 H      1694  TIP1544     0.2052
 23994 H2          -4.1420   -13.1900    45.2170 H      1694  TIP1544     0.2052
 23995 OH2          1.6110   -30.6330    51.1780 O.3    1695  TIP1545    -0.4105
 23996 H1           1.4530   -30.7300    50.2390 H      1695  TIP1545     0.2052
 23997 H2           1.3440   -29.7350    51.3740 H      1695  TIP1545     0.2052
 23998 OH2         29.1730    -9.7070    32.0880 O.3    1696  TIP1546    -0.4105
 23999 H1          30.0710    -9.8050    31.7720 H      1696  TIP1546     0.2052
 24000 H2          29.0100   -10.5000    32.5980 H      1696  TIP1546     0.2052
 24001 OH2        -23.4610    26.4130   -34.4620 O.3    1697  TIP1547    -0.4105
 24002 H1         -23.7550    26.4550   -33.5510 H      1697  TIP1547     0.2052
 24003 H2         -22.6800    25.8610   -34.4360 H      1697  TIP1547     0.2052
 24004 OH2         16.4050    -7.0110   -28.9240 O.3    1698  TIP1548    -0.4105
 24005 H1          16.0700    -6.3380   -28.3310 H      1698  TIP1548     0.2052
 24006 H2          15.9250    -7.8030   -28.6820 H      1698  TIP1548     0.2052
 24007 OH2        -23.2320   -14.4220   -18.3590 O.3    1699  TIP1549    -0.4105
 24008 H1         -23.0650   -13.9180   -17.5620 H      1699  TIP1549     0.2052
 24009 H2         -22.3680   -14.7270   -18.6350 H      1699  TIP1549     0.2052
 24010 OH2         28.6680    12.0460    55.1680 O.3    1700  TIP1550    -0.4105
 24011 H1          28.8230    11.1390    54.9040 H      1700  TIP1550     0.2052
 24012 H2          28.9450    12.5660    54.4150 H      1700  TIP1550     0.2052
 24013 OH2         -9.9080   -30.3030   -21.4600 O.3    1701  TIP1551    -0.4105
 24014 H1          -9.7920   -29.3540   -21.4220 H      1701  TIP1551     0.2052
 24015 H2         -10.0600   -30.5630   -20.5520 H      1701  TIP1551     0.2052
 24016 OH2        -23.3130   -29.9150   -42.0160 O.3    1702  TIP1552    -0.4105
 24017 H1         -24.2100   -29.8590   -41.6880 H      1702  TIP1552     0.2052
 24018 H2         -23.3970   -30.3270   -42.8760 H      1702  TIP1552     0.2052
 24019 OH2        -19.1060     8.8150   -30.7180 O.3    1703  TIP1553    -0.4105
 24020 H1         -18.7910     9.7070   -30.8650 H      1703  TIP1553     0.2052
 24021 H2         -18.3110     8.2820   -30.6880 H      1703  TIP1553     0.2052
 24022 OH2         17.4310     4.9840    31.3760 O.3    1704  TIP1554    -0.4105
 24023 H1          18.0300     5.7210    31.2570 H      1704  TIP1554     0.2052
 24024 H2          16.5820     5.3160    31.0840 H      1704  TIP1554     0.2052
 24025 OH2         -2.9970    -6.0600    29.6920 O.3    1705  TIP1555    -0.4105
 24026 H1          -2.3630    -6.2490    29.0010 H      1705  TIP1555     0.2052
 24027 H2          -3.8500    -6.1700    29.2710 H      1705  TIP1555     0.2052
 24028 OH2          6.2290   -31.6790   -36.7410 O.3    1706  TIP1556    -0.4105
 24029 H1           7.0910   -31.8270   -36.3520 H      1706  TIP1556     0.2052
 24030 H2           6.0000   -30.7860   -36.4840 H      1706  TIP1556     0.2052
 24031 OH2        -25.1980     8.8880   -40.7560 O.3    1707  TIP1557    -0.4105
 24032 H1         -25.7090     9.5840   -40.3430 H      1707  TIP1557     0.2052
 24033 H2         -25.3950     8.9670   -41.6900 H      1707  TIP1557     0.2052
 24034 OH2         -8.3890     9.9440    38.1210 O.3    1708  TIP1558    -0.4105
 24035 H1          -8.8270     9.2700    37.6010 H      1708  TIP1558     0.2052
 24036 H2          -7.9950     9.4670    38.8510 H      1708  TIP1558     0.2052
 24037 OH2         13.5920     8.0510   -21.5320 O.3    1709  TIP1559    -0.4105
 24038 H1          14.3870     8.5190   -21.7880 H      1709  TIP1559     0.2052
 24039 H2          12.9760     8.2160   -22.2460 H      1709  TIP1559     0.2052
 24040 OH2        -22.7820    -8.0230   -26.4370 O.3    1710  TIP1560    -0.4105
 24041 H1         -22.2630    -8.7270   -26.8260 H      1710  TIP1560     0.2052
 24042 H2         -23.5800    -7.9940   -26.9640 H      1710  TIP1560     0.2052
 24043 OH2         -0.9430    17.8590    51.5760 O.3    1711  TIP1561    -0.4105
 24044 H1          -0.2030    17.7760    50.9750 H      1711  TIP1561     0.2052
 24045 H2          -1.3450    16.9900    51.5830 H      1711  TIP1561     0.2052
 24046 OH2         13.0320    -4.5740    38.8560 O.3    1712  TIP1562    -0.4105
 24047 H1          13.6710    -3.8790    38.6970 H      1712  TIP1562     0.2052
 24048 H2          12.4470    -4.2140    39.5220 H      1712  TIP1562     0.2052
 24049 OH2         13.6950    30.4900   -41.4290 O.3    1713  TIP1563    -0.4105
 24050 H1          13.2140    29.6700   -41.5410 H      1713  TIP1563     0.2052
 24051 H2          13.0560    31.1720   -41.6340 H      1713  TIP1563     0.2052
 24052 OH2         25.9220    23.8090   -39.5920 O.3    1714  TIP1564    -0.4105
 24053 H1          25.0980    23.3260   -39.6500 H      1714  TIP1564     0.2052
 24054 H2          26.2790    23.7820   -40.4790 H      1714  TIP1564     0.2052
 24055 OH2        -12.7070    -3.2300   -27.0410 O.3    1715  TIP1565    -0.4105
 24056 H1         -13.0030    -3.5340   -26.1830 H      1715  TIP1565     0.2052
 24057 H2         -12.1270    -2.4930   -26.8480 H      1715  TIP1565     0.2052
 24058 OH2          4.1620    28.4460    35.1960 O.3    1716  TIP1566    -0.4105
 24059 H1           4.9610    28.4980    34.6710 H      1716  TIP1566     0.2052
 24060 H2           4.2410    27.6180    35.6700 H      1716  TIP1566     0.2052
 24061 OH2        -15.8330    19.7930   -36.6400 O.3    1717  TIP1567    -0.4105
 24062 H1         -16.5830    20.1220   -37.1350 H      1717  TIP1567     0.2052
 24063 H2         -16.0290    18.8670   -36.4960 H      1717  TIP1567     0.2052
 24064 OH2         -0.4910   -21.2750    36.4930 O.3    1718  TIP1568    -0.4105
 24065 H1           0.1140   -21.9300    36.8410 H      1718  TIP1568     0.2052
 24066 H2           0.0270   -20.7820    35.8580 H      1718  TIP1568     0.2052
 24067 OH2         17.1190    20.5340    32.5700 O.3    1719  TIP1569    -0.4105
 24068 H1          17.8050    20.5170    33.2370 H      1719  TIP1569     0.2052
 24069 H2          16.5880    21.2990    32.7910 H      1719  TIP1569     0.2052
 24070 OH2          7.4890   -26.9320   -54.5720 O.3    1720  TIP1570    -0.4105
 24071 H1           7.6480   -27.8750   -54.5330 H      1720  TIP1570     0.2052
 24072 H2           8.2470   -26.5790   -55.0370 H      1720  TIP1570     0.2052
 24073 OH2         -8.7980   -12.5400    27.4480 O.3    1721  TIP1571    -0.4105
 24074 H1          -8.9190   -11.5970    27.5600 H      1721  TIP1571     0.2052
 24075 H2          -8.6100   -12.6490    26.5150 H      1721  TIP1571     0.2052
 24076 OH2         32.4160   -16.9570   -36.8780 O.3    1722  TIP1572    -0.4105
 24077 H1          32.7560   -17.6990   -36.3770 H      1722  TIP1572     0.2052
 24078 H2          32.7340   -17.1040   -37.7690 H      1722  TIP1572     0.2052
 24079 OH2         10.6670   -29.9850    48.6190 O.3    1723  TIP1573    -0.4105
 24080 H1          10.6260   -30.6080    49.3440 H      1723  TIP1573     0.2052
 24081 H2          11.1150   -30.4600    47.9190 H      1723  TIP1573     0.2052
 24082 OH2         -4.8750    24.1520   -41.4400 O.3    1724  TIP1574    -0.4105
 24083 H1          -3.9380    23.9710   -41.3690 H      1724  TIP1574     0.2052
 24084 H2          -4.9770    25.0330   -41.0800 H      1724  TIP1574     0.2052
 24085 OH2        -27.2960    -4.6460    28.1910 O.3    1725  TIP1575    -0.4105
 24086 H1         -27.3690    -4.0310    27.4610 H      1725  TIP1575     0.2052
 24087 H2         -28.0750    -5.1970    28.1190 H      1725  TIP1575     0.2052
 24088 OH2          7.0860    28.0830   -39.8700 O.3    1726  TIP1576    -0.4105
 24089 H1           7.2510    27.1410   -39.9180 H      1726  TIP1576     0.2052
 24090 H2           6.6600    28.2940   -40.7010 H      1726  TIP1576     0.2052
 24091 OH2         29.0640    10.7410   -52.3750 O.3    1727  TIP1577    -0.4105
 24092 H1          28.9250    10.3260   -51.5230 H      1727  TIP1577     0.2052
 24093 H2          29.8820    10.3620   -52.6960 H      1727  TIP1577     0.2052
 24094 OH2        -23.5990     9.3050   -30.2830 O.3    1728  TIP1578    -0.4105
 24095 H1         -22.9270     8.6660   -30.5210 H      1728  TIP1578     0.2052
 24096 H2         -23.7310     9.1750   -29.3440 H      1728  TIP1578     0.2052
 24097 OH2         -7.4640   -24.6660    46.2270 O.3    1729  TIP1579    -0.4105
 24098 H1          -7.0500   -24.0130    46.7910 H      1729  TIP1579     0.2052
 24099 H2          -8.2530   -24.2350    45.8990 H      1729  TIP1579     0.2052
 24100 OH2        -25.1980    20.7050   -30.7870 O.3    1730  TIP1580    -0.4105
 24101 H1         -24.3730    20.2290   -30.6930 H      1730  TIP1580     0.2052
 24102 H2         -25.7590    20.3510   -30.0960 H      1730  TIP1580     0.2052
 24103 OH2         29.3060   -13.4730   -32.0120 O.3    1731  TIP1581    -0.4105
 24104 H1          28.9230   -12.5960   -32.0530 H      1731  TIP1581     0.2052
 24105 H2          30.0540   -13.3810   -31.4220 H      1731  TIP1581     0.2052
 24106 OH2          7.9290   -10.8160   -32.9700 O.3    1732  TIP1582    -0.4105
 24107 H1           7.8590   -10.0730   -33.5690 H      1732  TIP1582     0.2052
 24108 H2           7.0360   -10.9580   -32.6580 H      1732  TIP1582     0.2052
 24109 OH2         32.1010   -27.0290    45.2490 O.3    1733  TIP1583    -0.4105
 24110 H1          31.3270   -26.4840    45.1050 H      1733  TIP1583     0.2052
 24111 H2          31.8040   -27.7150    45.8480 H      1733  TIP1583     0.2052
 24112 OH2         24.4520    12.2830   -35.1200 O.3    1734  TIP1584    -0.4105
 24113 H1          24.7740    11.7250   -35.8270 H      1734  TIP1584     0.2052
 24114 H2          25.0890    12.1690   -34.4150 H      1734  TIP1584     0.2052
 24115 OH2         20.2950   -31.2050    29.9860 O.3    1735  TIP1585    -0.4105
 24116 H1          21.1910   -31.4450    29.7520 H      1735  TIP1585     0.2052
 24117 H2          20.0190   -31.8800    30.6060 H      1735  TIP1585     0.2052
 24118 OH2        -21.8720    17.3860    30.8540 O.3    1736  TIP1586    -0.4105
 24119 H1         -20.9910    17.0500    31.0190 H      1736  TIP1586     0.2052
 24120 H2         -21.8420    18.2960    31.1490 H      1736  TIP1586     0.2052
 24121 OH2          9.7860     6.2730   -18.2310 O.3    1737  TIP1587    -0.4105
 24122 H1           9.5990     5.4570   -17.7660 H      1737  TIP1587     0.2052
 24123 H2           9.0390     6.8380   -18.0350 H      1737  TIP1587     0.2052
 24124 OH2          7.1420   -22.4130   -35.8100 O.3    1738  TIP1588    -0.4105
 24125 H1           7.1490   -23.2410   -35.3290 H      1738  TIP1588     0.2052
 24126 H2           7.6590   -21.8160   -35.2680 H      1738  TIP1588     0.2052
 24127 OH2         29.8580    26.4950   -43.4770 O.3    1739  TIP1589    -0.4105
 24128 H1          30.2640    25.6850   -43.7860 H      1739  TIP1589     0.2052
 24129 H2          30.5540    27.1500   -43.5340 H      1739  TIP1589     0.2052
 24130 OH2         12.7030    18.4120    33.1400 O.3    1740  TIP1590    -0.4105
 24131 H1          12.0730    18.0180    32.5370 H      1740  TIP1590     0.2052
 24132 H2          12.1790    19.0020    33.6820 H      1740  TIP1590     0.2052
 24133 OH2        -13.1920    -2.0800   -45.1310 O.3    1741  TIP1591    -0.4105
 24134 H1         -14.0560    -1.9700   -45.5280 H      1741  TIP1591     0.2052
 24135 H2         -13.1850    -2.9840   -44.8170 H      1741  TIP1591     0.2052
 24136 OH2          6.6310    -4.3450   -21.3810 O.3    1742  TIP1592    -0.4105
 24137 H1           6.6620    -3.5560   -21.9220 H      1742  TIP1592     0.2052
 24138 H2           6.0500    -4.1160   -20.6550 H      1742  TIP1592     0.2052
 24139 OH2         28.8950    13.0640    34.0570 O.3    1743  TIP1593    -0.4105
 24140 H1          28.2450    12.6350    34.6130 H      1743  TIP1593     0.2052
 24141 H2          29.0040    13.9340    34.4430 H      1743  TIP1593     0.2052
 24142 OH2         29.0580   -25.4370    52.7040 O.3    1744  TIP1594    -0.4105
 24143 H1          29.0830   -25.0640    53.5850 H      1744  TIP1594     0.2052
 24144 H2          28.1720   -25.2510    52.3900 H      1744  TIP1594     0.2052
 24145 OH2         23.2860    30.8170    44.9710 O.3    1745  TIP1595    -0.4105
 24146 H1          23.4320    30.5570    44.0610 H      1745  TIP1595     0.2052
 24147 H2          24.1620    30.8400    45.3570 H      1745  TIP1595     0.2052
 24148 OH2        -19.9570    22.3590    45.2170 O.3    1746  TIP1596    -0.4105
 24149 H1         -20.5960    22.5890    45.8910 H      1746  TIP1596     0.2052
 24150 H2         -19.1850    22.0720    45.7060 H      1746  TIP1596     0.2052
 24151 OH2         12.9010   -26.2480    42.8370 O.3    1747  TIP1597    -0.4105
 24152 H1          13.5270   -26.0640    43.5380 H      1747  TIP1597     0.2052
 24153 H2          13.3140   -25.8960    42.0490 H      1747  TIP1597     0.2052
 24154 OH2        -15.4270    29.0650    26.8160 O.3    1748  TIP1598    -0.4105
 24155 H1         -14.5020    28.8210    26.8200 H      1748  TIP1598     0.2052
 24156 H2         -15.8290    28.4680    26.1850 H      1748  TIP1598     0.2052
 24157 OH2          3.0390    -0.4530   -24.6120 O.3    1749  TIP1599    -0.4105
 24158 H1           2.1500    -0.2500   -24.9030 H      1749  TIP1599     0.2052
 24159 H2           3.5570     0.3060   -24.8760 H      1749  TIP1599     0.2052
 24160 OH2         10.1000   -25.0820    23.7710 O.3    1750  TIP1600    -0.4105
 24161 H1           9.3230   -24.6340    23.4360 H      1750  TIP1600     0.2052
 24162 H2          10.6690   -25.1790    23.0080 H      1750  TIP1600     0.2052
 24163 OH2        -29.4330    16.5620    51.3750 O.3    1751  TIP1601    -0.4105
 24164 H1         -30.3490    16.3080    51.4880 H      1751  TIP1601     0.2052
 24165 H2         -29.4690    17.4870    51.1290 H      1751  TIP1601     0.2052
 24166 OH2         28.0430    31.3470   -25.8090 O.3    1752  TIP1602    -0.4105
 24167 H1          27.5210    30.8380   -26.4300 H      1752  TIP1602     0.2052
 24168 H2          27.8200    32.2580   -25.9980 H      1752  TIP1602     0.2052
 24169 OH2         12.7610   -25.4210   -36.3220 O.3    1753  TIP1603    -0.4105
 24170 H1          12.7600   -24.5050   -36.5990 H      1753  TIP1603     0.2052
 24171 H2          13.5910   -25.7700   -36.6490 H      1753  TIP1603     0.2052
 24172 OH2        -27.9440   -21.7440    42.8580 O.3    1754  TIP1604    -0.4105
 24173 H1         -28.2010   -20.9350    43.2990 H      1754  TIP1604     0.2052
 24174 H2         -27.5960   -21.4570    42.0130 H      1754  TIP1604     0.2052
 24175 OH2         -3.9530    17.0710   -42.0920 O.3    1755  TIP1605    -0.4105
 24176 H1          -4.3270    16.7610   -42.9170 H      1755  TIP1605     0.2052
 24177 H2          -3.3810    16.3580   -41.8060 H      1755  TIP1605     0.2052
 24178 OH2         13.6730   -18.1030    41.4100 O.3    1756  TIP1606    -0.4105
 24179 H1          14.6080   -18.3030    41.4630 H      1756  TIP1606     0.2052
 24180 H2          13.5320   -17.4340    42.0790 H      1756  TIP1606     0.2052
 24181 OH2        -10.9500    -0.1580   -21.5020 O.3    1757  TIP1607    -0.4105
 24182 H1         -11.1370     0.7150   -21.1570 H      1757  TIP1607     0.2052
 24183 H2         -11.2180    -0.7540   -20.8040 H      1757  TIP1607     0.2052
 24184 OH2         26.9110    23.6490   -48.8240 O.3    1758  TIP1608    -0.4105
 24185 H1          27.5000    23.8300   -48.0920 H      1758  TIP1608     0.2052
 24186 H2          27.2090    24.2310   -49.5220 H      1758  TIP1608     0.2052
 24187 OH2        -10.6780    29.4180   -24.1600 O.3    1759  TIP1609    -0.4105
 24188 H1         -11.2540    29.3970   -24.9240 H      1759  TIP1609     0.2052
 24189 H2         -10.1110    30.1760   -24.3070 H      1759  TIP1609     0.2052
 24190 OH2          8.0830    -0.1020    51.8040 O.3    1760  TIP1610    -0.4105
 24191 H1           8.5540    -0.8440    52.1810 H      1760  TIP1610     0.2052
 24192 H2           8.1620     0.5910    52.4590 H      1760  TIP1610     0.2052
 24193 OH2         24.8350   -27.5320   -37.0480 O.3    1761  TIP1611    -0.4105
 24194 H1          25.4380   -26.8540   -37.3530 H      1761  TIP1611     0.2052
 24195 H2          25.4040   -28.2400   -36.7450 H      1761  TIP1611     0.2052
 24196 OH2        -32.0000    30.9340    24.6460 O.3    1762  TIP1612    -0.4105
 24197 H1         -32.7380    30.8060    25.2420 H      1762  TIP1612     0.2052
 24198 H2         -32.3980    31.2470    23.8340 H      1762  TIP1612     0.2052
 24199 OH2        -25.9160    -6.0600    26.0780 O.3    1763  TIP1613    -0.4105
 24200 H1         -26.4910    -6.8180    26.1780 H      1763  TIP1613     0.2052
 24201 H2         -26.0470    -5.5520    26.8790 H      1763  TIP1613     0.2052
 24202 OH2         -6.2640   -21.0540   -42.3350 O.3    1764  TIP1614    -0.4105
 24203 H1          -6.8480   -21.6190   -42.8410 H      1764  TIP1614     0.2052
 24204 H2          -5.3840   -21.3210   -42.6000 H      1764  TIP1614     0.2052
 24205 OH2          3.3900   -23.8620    25.8590 O.3    1765  TIP1615    -0.4105
 24206 H1           3.4680   -23.1030    26.4370 H      1765  TIP1615     0.2052
 24207 H2           2.4800   -23.8450    25.5620 H      1765  TIP1615     0.2052
 24208 OH2        -13.9040    26.2730   -36.7270 O.3    1766  TIP1616    -0.4105
 24209 H1         -14.7900    26.0660   -36.4300 H      1766  TIP1616     0.2052
 24210 H2         -14.0300    26.7240   -37.5620 H      1766  TIP1616     0.2052
 24211 OH2          8.9710    -3.9870    47.6200 O.3    1767  TIP1617    -0.4105
 24212 H1           8.5890    -3.3130    47.0580 H      1767  TIP1617     0.2052
 24213 H2           8.9490    -4.7830    47.0890 H      1767  TIP1617     0.2052
 24214 OH2         27.2960    25.4240    37.6140 O.3    1768  TIP1618    -0.4105
 24215 H1          26.8350    25.5890    38.4360 H      1768  TIP1618     0.2052
 24216 H2          26.9850    24.5630    37.3330 H      1768  TIP1618     0.2052
 24217 OH2         -1.4990    12.8900   -29.7520 O.3    1769  TIP1619    -0.4105
 24218 H1          -1.8430    13.7080   -30.1120 H      1769  TIP1619     0.2052
 24219 H2          -2.0420    12.2080   -30.1470 H      1769  TIP1619     0.2052
 24220 OH2         20.6260     2.1680    55.2700 O.3    1770  TIP1620    -0.4105
 24221 H1          20.8130     2.3050    54.3420 H      1770  TIP1620     0.2052
 24222 H2          20.5030     3.0490    55.6230 H      1770  TIP1620     0.2052
 24223 OH2         21.2170    10.7490    43.4090 O.3    1771  TIP1621    -0.4105
 24224 H1          22.0660    10.6410    43.8370 H      1771  TIP1621     0.2052
 24225 H2          20.6150    10.2210    43.9340 H      1771  TIP1621     0.2052
 24226 OH2         25.7900     4.3370    31.9970 O.3    1772  TIP1622    -0.4105
 24227 H1          25.8150     3.7720    31.2250 H      1772  TIP1622     0.2052
 24228 H2          25.9240     3.7410    32.7340 H      1772  TIP1622     0.2052
 24229 OH2          2.8090    29.6540   -33.9270 O.3    1773  TIP1623    -0.4105
 24230 H1           2.9760    30.2280   -33.1800 H      1773  TIP1623     0.2052
 24231 H2           3.0080    30.1930   -34.6930 H      1773  TIP1623     0.2052
 24232 OH2         19.6900     0.1070   -36.2190 O.3    1774  TIP1624    -0.4105
 24233 H1          19.9380     0.0360   -37.1410 H      1774  TIP1624     0.2052
 24234 H2          20.2170     0.8320   -35.8840 H      1774  TIP1624     0.2052
 24235 OH2          4.4500    -5.3810    53.8720 O.3    1775  TIP1625    -0.4105
 24236 H1           4.2700    -5.2800    54.8070 H      1775  TIP1625     0.2052
 24237 H2           3.6440    -5.0950    53.4410 H      1775  TIP1625     0.2052
 24238 OH2        -17.1350    21.4350    26.0060 O.3    1776  TIP1626    -0.4105
 24239 H1         -16.2310    21.5700    26.2920 H      1776  TIP1626     0.2052
 24240 H2         -17.6600    21.9510    26.6190 H      1776  TIP1626     0.2052
 24241 OH2         17.0650   -22.6120   -54.5850 O.3    1777  TIP1627    -0.4105
 24242 H1          16.6970   -22.8330   -55.4410 H      1777  TIP1627     0.2052
 24243 H2          16.5270   -23.0960   -53.9590 H      1777  TIP1627     0.2052
 24244 OH2         -5.4800    31.6530    43.9790 O.3    1778  TIP1628    -0.4105
 24245 H1          -4.5380    31.5170    44.0790 H      1778  TIP1628     0.2052
 24246 H2          -5.5540    32.3360    43.3120 H      1778  TIP1628     0.2052
 24247 OH2         20.6830    25.9240   -44.7480 O.3    1779  TIP1629    -0.4105
 24248 H1          20.3420    26.5480   -45.3890 H      1779  TIP1629     0.2052
 24249 H2          20.0250    25.2300   -44.7160 H      1779  TIP1629     0.2052
 24250 OH2        -20.8710    18.5870   -23.0880 O.3    1780  TIP1630    -0.4105
 24251 H1         -20.8790    17.6320   -23.1530 H      1780  TIP1630     0.2052
 24252 H2         -19.9740    18.8030   -22.8340 H      1780  TIP1630     0.2052
 24253 OH2         29.6230    -9.8830   -47.8970 O.3    1781  TIP1631    -0.4105
 24254 H1          28.9690    -9.1860   -47.9540 H      1781  TIP1631     0.2052
 24255 H2          30.3930    -9.5260   -48.3390 H      1781  TIP1631     0.2052
 24256 OH2         23.9290    24.9170    26.2720 O.3    1782  TIP1632    -0.4105
 24257 H1          23.6830    24.3220    25.5650 H      1782  TIP1632     0.2052
 24258 H2          24.6330    24.4630    26.7360 H      1782  TIP1632     0.2052
 24259 OH2         31.9130    12.6360    44.2340 O.3    1783  TIP1633    -0.4105
 24260 H1          31.1500    13.1600    44.4790 H      1783  TIP1633     0.2052
 24261 H2          32.6600    13.2150    44.3820 H      1783  TIP1633     0.2052
 24262 OH2         -4.8030   -15.1550   -24.9690 O.3    1784  TIP1634    -0.4105
 24263 H1          -4.3690   -14.5360   -24.3820 H      1784  TIP1634     0.2052
 24264 H2          -4.0920   -15.5380   -25.4830 H      1784  TIP1634     0.2052
 24265 OH2        -26.1940    12.0960    18.8260 O.3    1785  TIP1635    -0.4105
 24266 H1         -25.6650    12.6040    18.2110 H      1785  TIP1635     0.2052
 24267 H2         -26.2150    11.2150    18.4530 H      1785  TIP1635     0.2052
 24268 OH2        -14.2130    11.3090    42.5130 O.3    1786  TIP1636    -0.4105
 24269 H1         -14.7640    11.9000    43.0250 H      1786  TIP1636     0.2052
 24270 H2         -14.7560    11.0630    41.7640 H      1786  TIP1636     0.2052
 24271 OH2        -11.2000   -29.8440   -30.7230 O.3    1787  TIP1637    -0.4105
 24272 H1         -10.7800   -29.0250   -30.4610 H      1787  TIP1637     0.2052
 24273 H2         -11.9200   -29.9540   -30.1020 H      1787  TIP1637     0.2052
 24274 OH2         12.7360     6.4880    52.7570 O.3    1788  TIP1638    -0.4105
 24275 H1          11.9940     5.9690    52.4460 H      1788  TIP1638     0.2052
 24276 H2          12.3370     7.2560    53.1670 H      1788  TIP1638     0.2052
 24277 OH2         28.9890    21.9440   -37.2490 O.3    1789  TIP1639    -0.4105
 24278 H1          29.3900    22.6860   -37.7010 H      1789  TIP1639     0.2052
 24279 H2          28.2580    21.6880   -37.8110 H      1789  TIP1639     0.2052
 24280 OH2         -1.9830   -10.9250   -32.6270 O.3    1790  TIP1640    -0.4105
 24281 H1          -1.3770   -10.3870   -33.1370 H      1790  TIP1640     0.2052
 24282 H2          -2.1820   -11.6680   -33.1970 H      1790  TIP1640     0.2052
 24283 OH2        -29.0410   -13.7180    47.6470 O.3    1791  TIP1641    -0.4105
 24284 H1         -29.6990   -13.7830    48.3390 H      1791  TIP1641     0.2052
 24285 H2         -28.5300   -14.5240    47.7260 H      1791  TIP1641     0.2052
 24286 OH2         29.4260     8.7670    32.8340 O.3    1792  TIP1642    -0.4105
 24287 H1          29.9900     8.6300    32.0730 H      1792  TIP1642     0.2052
 24288 H2          29.7430     8.1400    33.4840 H      1792  TIP1642     0.2052
 24289 OH2         -3.2680     7.3070    37.7550 O.3    1793  TIP1643    -0.4105
 24290 H1          -2.8740     7.9970    37.2210 H      1793  TIP1643     0.2052
 24291 H2          -2.5770     6.6510    37.8460 H      1793  TIP1643     0.2052
 24292 OH2         11.3640    13.7900   -43.3060 O.3    1794  TIP1644    -0.4105
 24293 H1          11.0390    13.7770   -42.4060 H      1794  TIP1644     0.2052
 24294 H2          10.7120    14.2990   -43.7890 H      1794  TIP1644     0.2052
 24295 OH2        -27.0850   -20.1970   -30.3090 O.3    1795  TIP1645    -0.4105
 24296 H1         -27.1110   -21.0770   -30.6840 H      1795  TIP1645     0.2052
 24297 H2         -27.8590   -19.7610   -30.6670 H      1795  TIP1645     0.2052
 24298 OH2        -10.4120    20.3800   -36.9690 O.3    1796  TIP1646    -0.4105
 24299 H1          -9.5490    20.2400   -36.5790 H      1796  TIP1646     0.2052
 24300 H2         -10.7120    19.5040   -37.2110 H      1796  TIP1646     0.2052
 24301 OH2        -20.2780   -14.2330   -38.8520 O.3    1797  TIP1647    -0.4105
 24302 H1         -19.4800   -14.5130   -38.4040 H      1797  TIP1647     0.2052
 24303 H2         -19.9860   -13.9860   -39.7300 H      1797  TIP1647     0.2052
 24304 OH2         11.4800     4.4360   -38.5360 O.3    1798  TIP1648    -0.4105
 24305 H1          11.3400     5.1150   -37.8760 H      1798  TIP1648     0.2052
 24306 H2          12.4320     4.3610   -38.6050 H      1798  TIP1648     0.2052
 24307 OH2         28.9160     6.5060   -44.5640 O.3    1799  TIP1649    -0.4105
 24308 H1          29.8110     6.7500   -44.3260 H      1799  TIP1649     0.2052
 24309 H2          28.8690     5.5660   -44.3880 H      1799  TIP1649     0.2052
 24310 OH2         17.0610    17.4570    49.3920 O.3    1800  TIP1650    -0.4105
 24311 H1          16.5810    16.8490    48.8300 H      1800  TIP1650     0.2052
 24312 H2          17.1120    17.0130    50.2380 H      1800  TIP1650     0.2052
 24313 OH2         -0.3180    30.2700   -45.6220 O.3    1801  TIP1651    -0.4105
 24314 H1          -0.8000    30.5120   -46.4130 H      1801  TIP1651     0.2052
 24315 H2          -0.8210    30.6580   -44.9060 H      1801  TIP1651     0.2052
 24316 OH2         24.9600    -7.3790   -35.9440 O.3    1802  TIP1652    -0.4105
 24317 H1          25.0640    -7.1200   -36.8590 H      1802  TIP1652     0.2052
 24318 H2          24.0170    -7.5030   -35.8350 H      1802  TIP1652     0.2052
 24319 OH2         32.1670    28.6630   -49.1890 O.3    1803  TIP1653    -0.4105
 24320 H1          32.2450    28.3030   -50.0730 H      1803  TIP1653     0.2052
 24321 H2          33.0680    28.8480   -48.9250 H      1803  TIP1653     0.2052
 24322 OH2         24.8390     9.4160   -14.0130 O.3    1804  TIP1654    -0.4105
 24323 H1          25.3980    10.1690   -14.2040 H      1804  TIP1654     0.2052
 24324 H2          25.3490     8.6590   -14.3010 H      1804  TIP1654     0.2052
 24325 OH2         -3.4240   -11.1790   -45.8750 O.3    1805  TIP1655    -0.4105
 24326 H1          -2.4680   -11.1640   -45.9020 H      1805  TIP1655     0.2052
 24327 H2          -3.6570   -12.0770   -46.1110 H      1805  TIP1655     0.2052
 24328 OH2         19.2870     0.3530    30.0840 O.3    1806  TIP1656    -0.4105
 24329 H1          18.5110     0.9020    30.1990 H      1806  TIP1656     0.2052
 24330 H2          19.5670     0.1420    30.9750 H      1806  TIP1656     0.2052
 24331 OH2         25.5840    -8.3280   -38.6150 O.3    1807  TIP1657    -0.4105
 24332 H1          25.6770    -9.2310   -38.3110 H      1807  TIP1657     0.2052
 24333 H2          26.4750    -7.9770   -38.6030 H      1807  TIP1657     0.2052
 24334 OH2          8.3870   -28.2740    53.1020 O.3    1808  TIP1658    -0.4105
 24335 H1           9.0660   -28.1580    52.4370 H      1808  TIP1658     0.2052
 24336 H2           8.8500   -28.1900    53.9350 H      1808  TIP1658     0.2052
 24337 OH2         15.7760    26.7950    32.0310 O.3    1809  TIP1659    -0.4105
 24338 H1          15.1700    26.2000    31.5890 H      1809  TIP1659     0.2052
 24339 H2          16.6440    26.4420    31.8350 H      1809  TIP1659     0.2052
 24340 OH2          8.3070   -17.7960   -54.4590 O.3    1810  TIP1660    -0.4105
 24341 H1           8.5900   -16.8840   -54.5260 H      1810  TIP1660     0.2052
 24342 H2           7.3810   -17.7780   -54.7000 H      1810  TIP1660     0.2052
 24343 OH2        -12.4880    14.7550   -38.0270 O.3    1811  TIP1661    -0.4105
 24344 H1         -12.4560    14.5380   -37.0960 H      1811  TIP1661     0.2052
 24345 H2         -11.6330    15.1440   -38.2120 H      1811  TIP1661     0.2052
 24346 OH2         20.1600   -27.8250    35.5830 O.3    1812  TIP1662    -0.4105
 24347 H1          20.9760   -27.7130    35.0950 H      1812  TIP1662     0.2052
 24348 H2          19.5430   -27.2280    35.1610 H      1812  TIP1662     0.2052
 24349 OH2         30.8390   -15.6640    47.9820 O.3    1813  TIP1663    -0.4105
 24350 H1          31.7010   -16.0700    48.0780 H      1813  TIP1663     0.2052
 24351 H2          30.5410   -15.9390    47.1140 H      1813  TIP1663     0.2052
 24352 OH2        -15.5370    12.5770    28.3320 O.3    1814  TIP1664    -0.4105
 24353 H1         -16.0720    12.4780    29.1190 H      1814  TIP1664     0.2052
 24354 H2         -15.0050    11.7820    28.3010 H      1814  TIP1664     0.2052
 24355 OH2         11.3290   -29.7100    31.4270 O.3    1815  TIP1665    -0.4105
 24356 H1          10.4180   -30.0020    31.4180 H      1815  TIP1665     0.2052
 24357 H2          11.8410   -30.5190    31.4460 H      1815  TIP1665     0.2052
 24358 OH2         28.3410   -15.0540    14.3500 O.3    1816  TIP1666    -0.4105
 24359 H1          27.8060   -15.7760    14.0230 H      1816  TIP1666     0.2052
 24360 H2          27.7630   -14.2910    14.3150 H      1816  TIP1666     0.2052
 24361 OH2         28.2530     3.1380   -26.5110 O.3    1817  TIP1667    -0.4105
 24362 H1          29.0500     3.6050   -26.2600 H      1817  TIP1667     0.2052
 24363 H2          28.4300     2.8210   -27.3970 H      1817  TIP1667     0.2052
 24364 OH2         21.0950     2.0750   -35.2820 O.3    1818  TIP1668    -0.4105
 24365 H1          21.6220     2.4640   -35.9810 H      1818  TIP1668     0.2052
 24366 H2          20.8130     2.8200   -34.7520 H      1818  TIP1668     0.2052
 24367 OH2        -20.1760    18.8840    53.8190 O.3    1819  TIP1669    -0.4105
 24368 H1         -20.9450    18.6300    54.3280 H      1819  TIP1669     0.2052
 24369 H2         -20.4900    19.5770    53.2380 H      1819  TIP1669     0.2052
 24370 OH2        -13.7750    19.3800   -28.7200 O.3    1820  TIP1670    -0.4105
 24371 H1         -14.4630    19.6790   -28.1250 H      1820  TIP1670     0.2052
 24372 H2         -13.6980    20.0800   -29.3680 H      1820  TIP1670     0.2052
 24373 OH2        -29.7340   -32.5460   -38.8510 O.3    1821  TIP1671    -0.4105
 24374 H1         -28.9330   -32.0980   -38.5810 H      1821  TIP1671     0.2052
 24375 H2         -30.2140   -31.8940   -39.3620 H      1821  TIP1671     0.2052
 24376 OH2        -26.6850   -22.3970   -41.6140 O.3    1822  TIP1672    -0.4105
 24377 H1         -26.9550   -21.5580   -41.2410 H      1822  TIP1672     0.2052
 24378 H2         -25.7420   -22.4390   -41.4530 H      1822  TIP1672     0.2052
 24379 OH2        -10.0630   -11.0510   -27.6970 O.3    1823  TIP1673    -0.4105
 24380 H1         -10.3540   -10.1400   -27.6680 H      1823  TIP1673     0.2052
 24381 H2         -10.7900   -11.5230   -28.1020 H      1823  TIP1673     0.2052
 24382 OH2         -2.7100   -20.5240    41.7370 O.3    1824  TIP1674    -0.4105
 24383 H1          -2.9470   -21.0440    42.5040 H      1824  TIP1674     0.2052
 24384 H2          -3.5150   -20.0650    41.4990 H      1824  TIP1674     0.2052
 24385 OH2         -1.1490    19.0270   -55.3700 O.3    1825  TIP1675    -0.4105
 24386 H1          -1.4730    19.9270   -55.3410 H      1825  TIP1675     0.2052
 24387 H2          -0.4400    19.0470   -56.0120 H      1825  TIP1675     0.2052
 24388 OH2         22.0580   -14.4620   -26.8450 O.3    1826  TIP1676    -0.4105
 24389 H1          22.8140   -14.6500   -27.4010 H      1826  TIP1676     0.2052
 24390 H2          21.3010   -14.7140   -27.3750 H      1826  TIP1676     0.2052
 24391 OH2         18.0970    -3.3700   -35.3370 O.3    1827  TIP1677    -0.4105
 24392 H1          17.5160    -2.9080   -35.9410 H      1827  TIP1677     0.2052
 24393 H2          17.5480    -4.0540   -34.9510 H      1827  TIP1677     0.2052
 24394 OH2          1.4860     3.6270   -45.1580 O.3    1828  TIP1678    -0.4105
 24395 H1           2.3710     3.2680   -45.2200 H      1828  TIP1678     0.2052
 24396 H2           1.5930     4.5630   -45.3310 H      1828  TIP1678     0.2052
 24397 OH2          5.4170   -22.7340    29.1440 O.3    1829  TIP1679    -0.4105
 24398 H1           6.2890   -22.3420    29.0860 H      1829  TIP1679     0.2052
 24399 H2           5.4980   -23.5690    28.6840 H      1829  TIP1679     0.2052
 24400 OH2         16.4640    11.9920   -31.0570 O.3    1830  TIP1680    -0.4105
 24401 H1          15.5360    11.9110   -31.2790 H      1830  TIP1680     0.2052
 24402 H2          16.9210    11.5390   -31.7650 H      1830  TIP1680     0.2052
 24403 OH2         15.2210   -11.2820    20.1850 O.3    1831  TIP1681    -0.4105
 24404 H1          16.1130   -11.2970    19.8390 H      1831  TIP1681     0.2052
 24405 H2          14.9250   -12.1910    20.1270 H      1831  TIP1681     0.2052
 24406 OH2         -3.0680    27.6840    35.1360 O.3    1832  TIP1682    -0.4105
 24407 H1          -3.5820    27.5170    34.3460 H      1832  TIP1682     0.2052
 24408 H2          -2.1820    27.8500    34.8160 H      1832  TIP1682     0.2052
 24409 OH2        -14.8290   -24.3460   -27.4400 O.3    1833  TIP1683    -0.4105
 24410 H1         -14.6300   -23.5860   -27.9870 H      1833  TIP1683     0.2052
 24411 H2         -13.9900   -24.7960   -27.3410 H      1833  TIP1683     0.2052
 24412 OH2        -32.7790     7.3390   -27.6780 O.3    1834  TIP1684    -0.4105
 24413 H1         -33.4560     6.7240   -27.9580 H      1834  TIP1684     0.2052
 24414 H2         -33.1650     7.7980   -26.9320 H      1834  TIP1684     0.2052
 24415 OH2        -18.2300    11.1610    36.3320 O.3    1835  TIP1685    -0.4105
 24416 H1         -17.3790    11.1020    36.7660 H      1835  TIP1685     0.2052
 24417 H2         -18.4410    12.0950    36.3430 H      1835  TIP1685     0.2052
 24418 OH2          7.6470    10.5160   -15.9010 O.3    1836  TIP1686    -0.4105
 24419 H1           6.7200    10.7010   -16.0510 H      1836  TIP1686     0.2052
 24420 H2           8.1040    11.0110   -16.5820 H      1836  TIP1686     0.2052
 24421 OH2        -23.1340    -6.6920   -24.1480 O.3    1837  TIP1687    -0.4105
 24422 H1         -23.2620    -7.4700   -24.6920 H      1837  TIP1687     0.2052
 24423 H2         -22.6660    -6.0790   -24.7140 H      1837  TIP1687     0.2052
 24424 OH2          6.3740    -3.1410    52.3110 O.3    1838  TIP1688    -0.4105
 24425 H1           6.5380    -3.4870    51.4340 H      1838  TIP1688     0.2052
 24426 H2           5.8100    -3.7940    52.7250 H      1838  TIP1688     0.2052
 24427 OH2        -14.8210    21.9100    52.4530 O.3    1839  TIP1689    -0.4105
 24428 H1         -15.2000    21.0600    52.2300 H      1839  TIP1689     0.2052
 24429 H2         -14.5490    21.8190    53.3670 H      1839  TIP1689     0.2052
 24430 OH2         19.0740    -1.9910    42.5450 O.3    1840  TIP1690    -0.4105
 24431 H1          18.5700    -1.8690    43.3490 H      1840  TIP1690     0.2052
 24432 H2          19.7150    -2.6670    42.7630 H      1840  TIP1690     0.2052
 24433 OH2         -9.4790    13.1830   -34.3410 O.3    1841  TIP1691    -0.4105
 24434 H1          -9.3090    12.8930   -35.2380 H      1841  TIP1691     0.2052
 24435 H2          -8.6240    13.4590   -34.0120 H      1841  TIP1691     0.2052
 24436 OH2         18.0420    30.5300   -24.6570 O.3    1842  TIP1692    -0.4105
 24437 H1          18.7030    31.2210   -24.7010 H      1842  TIP1692     0.2052
 24438 H2          18.5390    29.7350   -24.4650 H      1842  TIP1692     0.2052
 24439 OH2        -12.6530   -16.1110    24.4970 O.3    1843  TIP1693    -0.4105
 24440 H1         -13.5200   -15.8980    24.1510 H      1843  TIP1693     0.2052
 24441 H2         -12.0440   -15.7780    23.8390 H      1843  TIP1693     0.2052
 24442 OH2         -0.7010    26.5280    53.8850 O.3    1844  TIP1694    -0.4105
 24443 H1          -0.7390    25.8710    54.5800 H      1844  TIP1694     0.2052
 24444 H2          -0.3060    27.2950    54.3010 H      1844  TIP1694     0.2052
 24445 OH2        -18.3960     9.7770    39.5620 O.3    1845  TIP1695    -0.4105
 24446 H1         -18.8190    10.5820    39.2640 H      1845  TIP1695     0.2052
 24447 H2         -19.1200     9.2070    39.8190 H      1845  TIP1695     0.2052
 24448 OH2         -0.3500   -28.4300   -23.6460 O.3    1846  TIP1696    -0.4105
 24449 H1          -0.8410   -28.9020   -22.9730 H      1846  TIP1696     0.2052
 24450 H2           0.1630   -29.1070   -24.0870 H      1846  TIP1696     0.2052
 24451 OH2         26.8140    -5.0460   -36.2620 O.3    1847  TIP1697    -0.4105
 24452 H1          26.3620    -5.7370   -35.7770 H      1847  TIP1697     0.2052
 24453 H2          27.2580    -5.5050   -36.9750 H      1847  TIP1697     0.2052
 24454 OH2        -16.2940     9.5170   -38.3910 O.3    1848  TIP1698    -0.4105
 24455 H1         -15.8800    10.0800   -37.7380 H      1848  TIP1698     0.2052
 24456 H2         -17.2030     9.4390   -38.0990 H      1848  TIP1698     0.2052
 24457 OH2        -11.3760    -9.0390   -13.3920 O.3    1849  TIP1699    -0.4105
 24458 H1         -12.2080    -9.2930   -13.7910 H      1849  TIP1699     0.2052
 24459 H2         -10.9280    -8.5360   -14.0720 H      1849  TIP1699     0.2052
 24460 OH2        -16.0400     9.5030   -20.8390 O.3    1850  TIP1700    -0.4105
 24461 H1         -16.7420     8.8530   -20.8680 H      1850  TIP1700     0.2052
 24462 H2         -16.3980    10.2200   -20.3150 H      1850  TIP1700     0.2052
 24463 OH2        -10.0760    16.0560    51.1930 O.3    1851  TIP1701    -0.4105
 24464 H1          -9.7440    16.7000    51.8180 H      1851  TIP1701     0.2052
 24465 H2          -9.3800    15.4030    51.1290 H      1851  TIP1701     0.2052
 24466 OH2         22.0940    30.6190   -34.8050 O.3    1852  TIP1702    -0.4105
 24467 H1          22.3150    30.7180   -33.8790 H      1852  TIP1702     0.2052
 24468 H2          22.8950    30.2860   -35.2090 H      1852  TIP1702     0.2052
 24469 OH2        -13.3110   -29.1820   -45.8790 O.3    1853  TIP1703    -0.4105
 24470 H1         -13.1830   -30.0530   -45.5040 H      1853  TIP1703     0.2052
 24471 H2         -12.5580   -28.6760   -45.5750 H      1853  TIP1703     0.2052
 24472 OH2          3.9580   -20.3780    29.2180 O.3    1854  TIP1704    -0.4105
 24473 H1           3.8970   -20.4550    28.2660 H      1854  TIP1704     0.2052
 24474 H2           4.6000   -21.0410    29.4720 H      1854  TIP1704     0.2052
 24475 OH2         19.9980    -0.1340    23.2250 O.3    1855  TIP1705    -0.4105
 24476 H1          19.5610    -0.5650    22.4920 H      1855  TIP1705     0.2052
 24477 H2          20.8900    -0.4820    23.2110 H      1855  TIP1705     0.2052
 24478 OH2         32.2920    25.1820    31.1590 O.3    1856  TIP1706    -0.4105
 24479 H1          32.9580    25.6190    30.6270 H      1856  TIP1706     0.2052
 24480 H2          31.6340    25.8570    31.3230 H      1856  TIP1706     0.2052
 24481 OH2         28.3910    27.0830    22.4050 O.3    1857  TIP1707    -0.4105
 24482 H1          28.3620    26.8130    23.3230 H      1857  TIP1707     0.2052
 24483 H2          27.5730    27.5620    22.2700 H      1857  TIP1707     0.2052
 24484 OH2          4.6020    10.0060   -36.3750 O.3    1858  TIP1708    -0.4105
 24485 H1           4.2740     9.1370   -36.1450 H      1858  TIP1708     0.2052
 24486 H2           5.5540     9.9060   -36.3960 H      1858  TIP1708     0.2052
 24487 OH2        -26.7670   -30.1170    49.9510 O.3    1859  TIP1709    -0.4105
 24488 H1         -27.4480   -30.6110    49.4950 H      1859  TIP1709     0.2052
 24489 H2         -26.4150   -30.7320    50.5940 H      1859  TIP1709     0.2052
 24490 OH2        -16.6400   -29.9160    32.2940 O.3    1860  TIP1710    -0.4105
 24491 H1         -17.1750   -30.2110    31.5570 H      1860  TIP1710     0.2052
 24492 H2         -16.8740   -30.5040    33.0110 H      1860  TIP1710     0.2052
 24493 OH2        -17.7920   -30.0500    52.7070 O.3    1861  TIP1711    -0.4105
 24494 H1         -18.5620   -30.1470    52.1460 H      1861  TIP1711     0.2052
 24495 H2         -17.0480   -30.1500    52.1130 H      1861  TIP1711     0.2052
 24496 OH2        -20.4080    16.1450    50.5460 O.3    1862  TIP1712    -0.4105
 24497 H1         -19.7510    16.6010    50.0210 H      1862  TIP1712     0.2052
 24498 H2         -20.6750    15.4030    50.0040 H      1862  TIP1712     0.2052
 24499 OH2        -22.9350   -16.0190    23.5640 O.3    1863  TIP1713    -0.4105
 24500 H1         -23.0130   -15.0710    23.4580 H      1863  TIP1713     0.2052
 24501 H2         -23.0750   -16.1680    24.4990 H      1863  TIP1713     0.2052
 24502 OH2          2.0660     2.3910    22.9580 O.3    1864  TIP1714    -0.4105
 24503 H1           2.8970     1.9590    23.1560 H      1864  TIP1714     0.2052
 24504 H2           2.2530     2.9290    22.1890 H      1864  TIP1714     0.2052
 24505 OH2          7.3840    -7.0160    41.6450 O.3    1865  TIP1715    -0.4105
 24506 H1           7.0620    -6.2150    41.2310 H      1865  TIP1715     0.2052
 24507 H2           8.1320    -7.2790    41.1090 H      1865  TIP1715     0.2052
 24508 OH2         14.0680     4.1990   -37.7410 O.3    1866  TIP1716    -0.4105
 24509 H1          14.5600     4.5560   -38.4800 H      1866  TIP1716     0.2052
 24510 H2          14.6920     3.6300   -37.2900 H      1866  TIP1716     0.2052
 24511 OH2         20.6300    11.5790   -52.6120 O.3    1867  TIP1717    -0.4105
 24512 H1          20.4230    12.4430   -52.2560 H      1867  TIP1717     0.2052
 24513 H2          19.7810    11.2100   -52.8550 H      1867  TIP1717     0.2052
 24514 OH2          0.8870   -11.8700    38.7720 O.3    1868  TIP1718    -0.4105
 24515 H1           1.0400   -11.9990    39.7080 H      1868  TIP1718     0.2052
 24516 H2           1.3890   -12.5650    38.3480 H      1868  TIP1718     0.2052
 24517 OH2         -0.5970    25.3270    51.3280 O.3    1869  TIP1719    -0.4105
 24518 H1          -0.4250    26.1190    50.8190 H      1869  TIP1719     0.2052
 24519 H2          -0.3950    25.5720    52.2310 H      1869  TIP1719     0.2052
 24520 OH2         25.1620    -7.1310    23.5840 O.3    1870  TIP1720    -0.4105
 24521 H1          24.3450    -7.4320    23.9810 H      1870  TIP1720     0.2052
 24522 H2          25.0200    -6.1980    23.4220 H      1870  TIP1720     0.2052
 24523 OH2        -12.4290    11.9930    19.1600 O.3    1871  TIP1721    -0.4105
 24524 H1         -11.7740    11.6440    19.7650 H      1871  TIP1721     0.2052
 24525 H2         -12.0870    12.8500    18.9050 H      1871  TIP1721     0.2052
 24526 OH2         21.0270     0.8150    32.1920 O.3    1872  TIP1722    -0.4105
 24527 H1          20.7060    -0.0780    32.3150 H      1872  TIP1722     0.2052
 24528 H2          21.9740     0.7170    32.0870 H      1872  TIP1722     0.2052
 24529 OH2         31.3600   -28.5720   -46.7300 O.3    1873  TIP1723    -0.4105
 24530 H1          31.0760   -27.8260   -47.2580 H      1873  TIP1723     0.2052
 24531 H2          31.2650   -28.2760   -45.8250 H      1873  TIP1723     0.2052
 24532 OH2          7.0610   -11.5670   -42.1970 O.3    1874  TIP1724    -0.4105
 24533 H1           7.4940   -10.7490   -42.4410 H      1874  TIP1724     0.2052
 24534 H2           6.7230   -11.9150   -43.0220 H      1874  TIP1724     0.2052
 24535 OH2        -23.2410     3.4490    39.2330 O.3    1875  TIP1725    -0.4105
 24536 H1         -23.5950     2.8280    39.8690 H      1875  TIP1725     0.2052
 24537 H2         -23.8990     3.4850    38.5390 H      1875  TIP1725     0.2052
 24538 OH2         -9.4640   -28.5510    55.3460 O.3    1876  TIP1726    -0.4105
 24539 H1          -9.4800   -28.9070    54.4570 H      1876  TIP1726     0.2052
 24540 H2          -8.8530   -29.1160    55.8190 H      1876  TIP1726     0.2052
 24541 OH2          9.4350    12.5040    54.9840 O.3    1877  TIP1727    -0.4105
 24542 H1           9.7820    11.9680    54.2720 H      1877  TIP1727     0.2052
 24543 H2           9.1030    11.8720    55.6220 H      1877  TIP1727     0.2052
 24544 OH2        -10.3730   -11.7700   -52.5680 O.3    1878  TIP1728    -0.4105
 24545 H1         -10.7960   -12.5710   -52.8770 H      1878  TIP1728     0.2052
 24546 H2         -10.7740   -11.6000   -51.7160 H      1878  TIP1728     0.2052
 24547 OH2         -2.9590    17.2510   -35.8620 O.3    1879  TIP1729    -0.4105
 24548 H1          -3.5300    18.0140   -35.9530 H      1879  TIP1729     0.2052
 24549 H2          -2.5990    17.1150   -36.7380 H      1879  TIP1729     0.2052
 24550 OH2         22.2490     6.1430   -35.1440 O.3    1880  TIP1730    -0.4105
 24551 H1          22.5920     5.5090   -34.5140 H      1880  TIP1730     0.2052
 24552 H2          21.4660     5.7250   -35.5030 H      1880  TIP1730     0.2052
 24553 OH2         31.1010    -4.0720    34.3260 O.3    1881  TIP1731    -0.4105
 24554 H1          30.9880    -3.8620    33.3990 H      1881  TIP1731     0.2052
 24555 H2          31.0230    -5.0250    34.3680 H      1881  TIP1731     0.2052
 24556 OH2         -8.9970    -6.2070    45.5180 O.3    1882  TIP1732    -0.4105
 24557 H1          -8.6940    -5.8250    44.6940 H      1882  TIP1732     0.2052
 24558 H2          -8.6440    -7.0970    45.5140 H      1882  TIP1732     0.2052
 24559 OH2         -3.3830   -13.6590    28.5310 O.3    1883  TIP1733    -0.4105
 24560 H1          -2.6370   -13.0600    28.5140 H      1883  TIP1733     0.2052
 24561 H2          -3.4150   -14.0280    27.6480 H      1883  TIP1733     0.2052
 24562 OH2        -14.0110     1.2370   -49.0920 O.3    1884  TIP1734    -0.4105
 24563 H1         -13.9480     1.9270   -49.7530 H      1884  TIP1734     0.2052
 24564 H2         -14.6490     0.6200   -49.4490 H      1884  TIP1734     0.2052
 24565 OH2          6.6850    17.1160    37.2990 O.3    1885  TIP1735    -0.4105
 24566 H1           6.4930    17.4540    38.1730 H      1885  TIP1735     0.2052
 24567 H2           7.0150    17.8730    36.8160 H      1885  TIP1735     0.2052
 24568 OH2        -30.3390    12.5970    36.5960 O.3    1886  TIP1736    -0.4105
 24569 H1         -31.2510    12.4820    36.3290 H      1886  TIP1736     0.2052
 24570 H2         -30.1960    13.5430    36.5560 H      1886  TIP1736     0.2052
 24571 OH2         26.4790   -17.2770   -17.9780 O.3    1887  TIP1737    -0.4105
 24572 H1          26.7270   -16.9380   -17.1170 H      1887  TIP1737     0.2052
 24573 H2          25.5740   -17.5710   -17.8680 H      1887  TIP1737     0.2052
 24574 OH2        -19.3770   -31.1110    50.5530 O.3    1888  TIP1738    -0.4105
 24575 H1         -19.5980   -32.0120    50.3180 H      1888  TIP1738     0.2052
 24576 H2         -18.8040   -30.8120    49.8460 H      1888  TIP1738     0.2052
 24577 OH2        -14.1300    21.2400    23.2410 O.3    1889  TIP1739    -0.4105
 24578 H1         -13.9390    21.2130    24.1790 H      1889  TIP1739     0.2052
 24579 H2         -14.9540    21.7240    23.1780 H      1889  TIP1739     0.2052
 24580 OH2        -23.8570    -8.5700   -54.1820 O.3    1890  TIP1740    -0.4105
 24581 H1         -23.9990    -7.6650   -54.4590 H      1890  TIP1740     0.2052
 24582 H2         -24.6550    -9.0300   -54.4460 H      1890  TIP1740     0.2052
 24583 OH2        -20.6070    24.9580   -38.3560 O.3    1891  TIP1741    -0.4105
 24584 H1         -21.2210    25.5520   -37.9260 H      1891  TIP1741     0.2052
 24585 H2         -20.2560    25.4640   -39.0880 H      1891  TIP1741     0.2052
 24586 OH2        -25.9290   -30.3240    27.1160 O.3    1892  TIP1742    -0.4105
 24587 H1         -26.7090   -29.7760    27.2020 H      1892  TIP1742     0.2052
 24588 H2         -25.4620   -29.9610    26.3630 H      1892  TIP1742     0.2052
 24589 OH2         10.7280    12.4410   -31.6510 O.3    1893  TIP1743    -0.4105
 24590 H1          10.3810    12.1770   -32.5040 H      1893  TIP1743     0.2052
 24591 H2           9.9540    12.5460   -31.0990 H      1893  TIP1743     0.2052
 24592 OH2         21.3790    31.6250   -52.9070 O.3    1894  TIP1744    -0.4105
 24593 H1          21.6050    31.4170   -52.0010 H      1894  TIP1744     0.2052
 24594 H2          21.8170    30.9510   -53.4250 H      1894  TIP1744     0.2052
 24595 OH2          1.4030   -32.4500    46.1480 O.3    1895  TIP1745    -0.4105
 24596 H1           0.4520   -32.5270    46.0710 H      1895  TIP1745     0.2052
 24597 H2           1.7460   -33.0620    45.4960 H      1895  TIP1745     0.2052
 24598 OH2         19.3950    -5.8480   -37.8110 O.3    1896  TIP1746    -0.4105
 24599 H1          19.8810    -6.6680   -37.9020 H      1896  TIP1746     0.2052
 24600 H2          19.6750    -5.4960   -36.9660 H      1896  TIP1746     0.2052
 24601 OH2        -17.6160   -19.1870   -41.7550 O.3    1897  TIP1747    -0.4105
 24602 H1         -16.6670   -19.2650   -41.8550 H      1897  TIP1747     0.2052
 24603 H2         -17.9170   -20.0850   -41.6190 H      1897  TIP1747     0.2052
 24604 OH2         11.1840   -20.6400    35.0410 O.3    1898  TIP1748    -0.4105
 24605 H1          11.9070   -20.3130    35.5760 H      1898  TIP1748     0.2052
 24606 H2          10.5740   -19.9040    34.9860 H      1898  TIP1748     0.2052
 24607 OH2         -6.2020   -16.0640   -46.1430 O.3    1899  TIP1749    -0.4105
 24608 H1          -6.2610   -16.9480   -46.5070 H      1899  TIP1749     0.2052
 24609 H2          -5.8850   -16.1930   -45.2490 H      1899  TIP1749     0.2052
 24610 OH2         11.1800     7.1670   -42.0290 O.3    1900  TIP1750    -0.4105
 24611 H1          10.8500     7.6590   -41.2770 H      1900  TIP1750     0.2052
 24612 H2          10.4310     6.6480   -42.3230 H      1900  TIP1750     0.2052
 24613 OH2        -31.6170     3.3700    36.1640 O.3    1901  TIP1751    -0.4105
 24614 H1         -32.2620     4.0280    36.4250 H      1901  TIP1751     0.2052
 24615 H2         -32.1390     2.6520    35.8050 H      1901  TIP1751     0.2052
 24616 OH2        -19.7970    -1.2400   -48.5030 O.3    1902  TIP1752    -0.4105
 24617 H1         -20.7240    -1.0030   -48.5070 H      1902  TIP1752     0.2052
 24618 H2         -19.7930    -2.1910   -48.3870 H      1902  TIP1752     0.2052
 24619 OH2        -12.8450    -1.1000   -54.9720 O.3    1903  TIP1753    -0.4105
 24620 H1         -13.2920    -1.9440   -54.9010 H      1903  TIP1753     0.2052
 24621 H2         -13.2670    -0.6670   -55.7140 H      1903  TIP1753     0.2052
 24622 OH2          4.1870    28.1680   -36.3220 O.3    1904  TIP1754    -0.4105
 24623 H1           3.2350    28.0640   -36.3230 H      1904  TIP1754     0.2052
 24624 H2           4.3920    28.5100   -37.1930 H      1904  TIP1754     0.2052
 24625 OH2        -16.3690   -20.7900   -54.7890 O.3    1905  TIP1755    -0.4105
 24626 H1         -16.1800   -20.3010   -53.9880 H      1905  TIP1755     0.2052
 24627 H2         -17.3150   -20.9330   -54.7650 H      1905  TIP1755     0.2052
 24628 OH2         27.2060    -2.3690   -28.4790 O.3    1906  TIP1756    -0.4105
 24629 H1          27.2700    -3.2590   -28.1330 H      1906  TIP1756     0.2052
 24630 H2          27.9610    -2.2820   -29.0600 H      1906  TIP1756     0.2052
 24631 OH2         26.2050     9.0620   -23.7870 O.3    1907  TIP1757    -0.4105
 24632 H1          25.6900     9.4090   -24.5140 H      1907  TIP1757     0.2052
 24633 H2          26.4830     9.8370   -23.2980 H      1907  TIP1757     0.2052
 24634 OH2        -31.5230   -30.5830    48.0540 O.3    1908  TIP1758    -0.4105
 24635 H1         -31.6070   -30.6710    49.0040 H      1908  TIP1758     0.2052
 24636 H2         -31.1420   -31.4130    47.7690 H      1908  TIP1758     0.2052
 24637 OH2        -18.1310   -14.9640    43.8880 O.3    1909  TIP1759    -0.4105
 24638 H1         -18.2580   -15.7760    43.3990 H      1909  TIP1759     0.2052
 24639 H2         -18.8260   -14.3840    43.5770 H      1909  TIP1759     0.2052
 24640 OH2          0.7120   -27.3120    29.4980 O.3    1910  TIP1760    -0.4105
 24641 H1           1.3570   -26.6450    29.2630 H      1910  TIP1760     0.2052
 24642 H2          -0.1060   -27.0010    29.1100 H      1910  TIP1760     0.2052
 24643 OH2        -20.7640     9.9630    49.3000 O.3    1911  TIP1761    -0.4105
 24644 H1         -21.4870    10.5160    49.5960 H      1911  TIP1761     0.2052
 24645 H2         -20.8160     9.1840    49.8530 H      1911  TIP1761     0.2052
 24646 OH2         -7.9290   -24.3830    23.7610 O.3    1912  TIP1762    -0.4105
 24647 H1          -8.6450   -24.5660    24.3700 H      1912  TIP1762     0.2052
 24648 H2          -7.9990   -25.0680    23.0960 H      1912  TIP1762     0.2052
 24649 OH2         -1.3560     1.1220   -44.2540 O.3    1913  TIP1763    -0.4105
 24650 H1          -0.8090     0.6930   -44.9120 H      1913  TIP1763     0.2052
 24651 H2          -2.1220     0.5540   -44.1710 H      1913  TIP1763     0.2052
 24652 OH2         10.6100    13.6300   -40.4070 O.3    1914  TIP1764    -0.4105
 24653 H1          10.7920    13.0620   -39.6580 H      1914  TIP1764     0.2052
 24654 H2          10.1310    14.3710   -40.0360 H      1914  TIP1764     0.2052
 24655 OH2        -29.4420   -23.9740    51.4950 O.3    1915  TIP1765    -0.4105
 24656 H1         -28.7710   -23.4190    51.8920 H      1915  TIP1765     0.2052
 24657 H2         -29.0810   -24.8590    51.5450 H      1915  TIP1765     0.2052
 24658 OH2         -5.0830   -29.7390    31.9800 O.3    1916  TIP1766    -0.4105
 24659 H1          -4.6910   -28.8720    32.0870 H      1916  TIP1766     0.2052
 24660 H2          -5.8730   -29.5830    31.4620 H      1916  TIP1766     0.2052
 24661 OH2         18.4760    -2.6510   -50.2990 O.3    1917  TIP1767    -0.4105
 24662 H1          18.2580    -2.8540   -49.3900 H      1917  TIP1767     0.2052
 24663 H2          17.6320    -2.6290   -50.7500 H      1917  TIP1767     0.2052
 24664 OH2         -4.6430     0.9500   -21.5180 O.3    1918  TIP1768    -0.4105
 24665 H1          -5.4120     1.5020   -21.6580 H      1918  TIP1768     0.2052
 24666 H2          -4.9880     0.1580   -21.1070 H      1918  TIP1768     0.2052
 24667 OH2         -9.5610   -28.3950    22.5240 O.3    1919  TIP1769    -0.4105
 24668 H1          -9.7370   -28.6830    21.6280 H      1919  TIP1769     0.2052
 24669 H2         -10.4100   -28.4450    22.9640 H      1919  TIP1769     0.2052
 24670 OH2         -1.2580    31.2870   -47.8710 O.3    1920  TIP1770    -0.4105
 24671 H1          -1.9640    30.8210   -48.3190 H      1920  TIP1770     0.2052
 24672 H2          -0.5070    31.2070   -48.4600 H      1920  TIP1770     0.2052
 24673 OH2         30.8410    -0.3160   -54.3700 O.3    1921  TIP1771    -0.4105
 24674 H1          31.3900    -0.8320   -53.7800 H      1921  TIP1771     0.2052
 24675 H2          30.2590    -0.9570   -54.7780 H      1921  TIP1771     0.2052
 24676 OH2          0.7950    15.6980   -50.0690 O.3    1922  TIP1772    -0.4105
 24677 H1           0.1050    16.3000   -49.7930 H      1922  TIP1772     0.2052
 24678 H2           0.9080    15.1040   -49.3270 H      1922  TIP1772     0.2052
 24679 OH2         23.2120   -12.1520   -26.2800 O.3    1923  TIP1773    -0.4105
 24680 H1          23.9610   -12.0630   -26.8690 H      1923  TIP1773     0.2052
 24681 H2          22.8670   -13.0270   -26.4610 H      1923  TIP1773     0.2052
 24682 OH2          1.6040   -33.0390    34.1720 O.3    1924  TIP1774    -0.4105
 24683 H1           2.1010   -33.5410    33.5270 H      1924  TIP1774     0.2052
 24684 H2           2.1540   -32.2780    34.3610 H      1924  TIP1774     0.2052
 24685 OH2        -28.0520    16.9150    24.7730 O.3    1925  TIP1775    -0.4105
 24686 H1         -27.6880    16.6440    23.9300 H      1925  TIP1775     0.2052
 24687 H2         -27.5790    16.3910    25.4190 H      1925  TIP1775     0.2052
 24688 OH2        -17.0000    13.5410   -36.7260 O.3    1926  TIP1776    -0.4105
 24689 H1         -16.3180    13.5120   -36.0550 H      1926  TIP1776     0.2052
 24690 H2         -16.5350    13.7710   -37.5310 H      1926  TIP1776     0.2052
 24691 OH2        -22.3380    32.6100   -46.5040 O.3    1927  TIP1777    -0.4105
 24692 H1         -22.8420    32.2620   -47.2390 H      1927  TIP1777     0.2052
 24693 H2         -22.5940    32.0660   -45.7590 H      1927  TIP1777     0.2052
 24694 OH2        -20.9090     4.6010   -46.1560 O.3    1928  TIP1778    -0.4105
 24695 H1         -21.8180     4.8300   -46.3490 H      1928  TIP1778     0.2052
 24696 H2         -20.6650     5.1760   -45.4300 H      1928  TIP1778     0.2052
 24697 OH2        -17.1820    -7.5300   -31.2460 O.3    1929  TIP1779    -0.4105
 24698 H1         -17.9770    -7.1430   -31.6130 H      1929  TIP1779     0.2052
 24699 H2         -16.6800    -6.7840   -30.9190 H      1929  TIP1779     0.2052
 24700 OH2         -0.4240   -30.6050   -52.2320 O.3    1930  TIP1780    -0.4105
 24701 H1          -1.3000   -30.2450   -52.0960 H      1930  TIP1780     0.2052
 24702 H2          -0.4290   -30.9120   -53.1380 H      1930  TIP1780     0.2052
 24703 OH2        -22.3450    11.2620    40.3410 O.3    1931  TIP1781    -0.4105
 24704 H1         -22.9120    11.8450    40.8460 H      1931  TIP1781     0.2052
 24705 H2         -21.4940    11.7000    40.3360 H      1931  TIP1781     0.2052
 24706 OH2         21.7070   -30.1200    48.3360 O.3    1932  TIP1782    -0.4105
 24707 H1          22.0530   -30.7700    47.7250 H      1932  TIP1782     0.2052
 24708 H2          21.5990   -30.5970    49.1590 H      1932  TIP1782     0.2052
 24709 OH2          5.1470    11.0220   -40.8950 O.3    1933  TIP1783    -0.4105
 24710 H1           5.3530    11.3730   -41.7610 H      1933  TIP1783     0.2052
 24711 H2           4.2410    11.2880   -40.7380 H      1933  TIP1783     0.2052
 24712 OH2        -26.9370    13.9100   -53.9380 O.3    1934  TIP1784    -0.4105
 24713 H1         -26.7880    14.3430   -54.7780 H      1934  TIP1784     0.2052
 24714 H2         -26.2590    13.2360   -53.8920 H      1934  TIP1784     0.2052
 24715 OH2        -14.6120    14.5010   -30.6820 O.3    1935  TIP1785    -0.4105
 24716 H1         -14.7000    13.8340   -31.3630 H      1935  TIP1785     0.2052
 24717 H2         -13.6900    14.7560   -30.7140 H      1935  TIP1785     0.2052
 24718 OH2        -12.3580    29.7520   -28.6420 O.3    1936  TIP1786    -0.4105
 24719 H1         -12.1650    28.9100   -28.2310 H      1936  TIP1786     0.2052
 24720 H2         -12.3290    29.5730   -29.5810 H      1936  TIP1786     0.2052
 24721 OH2        -20.0310   -10.9060   -24.3440 O.3    1937  TIP1787    -0.4105
 24722 H1         -19.2410   -11.3870   -24.0950 H      1937  TIP1787     0.2052
 24723 H2         -20.6280   -11.0260   -23.6060 H      1937  TIP1787     0.2052
 24724 OH2         17.5100     2.5960    30.0450 O.3    1938  TIP1788    -0.4105
 24725 H1          17.2370     2.8080    29.1520 H      1938  TIP1788     0.2052
 24726 H2          17.4260     3.4200    30.5250 H      1938  TIP1788     0.2052
 24727 OH2        -26.1500    26.1310   -28.0430 O.3    1939  TIP1789    -0.4105
 24728 H1         -26.8780    26.3750   -27.4720 H      1939  TIP1789     0.2052
 24729 H2         -25.9390    25.2320   -27.7910 H      1939  TIP1789     0.2052
 24730 OH2        -15.4790   -21.9440    21.1430 O.3    1940  TIP1790    -0.4105
 24731 H1         -16.0450   -22.4350    20.5480 H      1940  TIP1790     0.2052
 24732 H2         -15.4370   -21.0650    20.7650 H      1940  TIP1790     0.2052
 24733 OH2        -11.4040    26.3530    35.6420 O.3    1941  TIP1791    -0.4105
 24734 H1         -10.6540    25.7670    35.5360 H      1941  TIP1791     0.2052
 24735 H2         -12.0880    25.8020    36.0210 H      1941  TIP1791     0.2052
 24736 OH2         12.1410    -3.1660    -5.1380 O.3    1942  TIP1792    -0.4105
 24737 H1          12.4810    -3.1420    -6.0330 H      1942  TIP1792     0.2052
 24738 H2          12.5820    -2.4400    -4.6950 H      1942  TIP1792     0.2052
 24739 OH2          2.8700   -28.7710    42.8780 O.3    1943  TIP1793    -0.4105
 24740 H1           2.4120   -29.1770    42.1420 H      1943  TIP1793     0.2052
 24741 H2           2.9390   -29.4670    43.5320 H      1943  TIP1793     0.2052
 24742 OH2          1.9600     4.1190    31.1010 O.3    1944  TIP1794    -0.4105
 24743 H1           1.1250     4.4570    31.4240 H      1944  TIP1794     0.2052
 24744 H2           1.9950     3.2180    31.4230 H      1944  TIP1794     0.2052
 24745 OH2         27.3340     6.5350    32.6450 O.3    1945  TIP1795    -0.4105
 24746 H1          26.6300     6.8640    33.2050 H      1945  TIP1795     0.2052
 24747 H2          26.9620     5.7620    32.2210 H      1945  TIP1795     0.2052
 24748 OH2         31.9690   -13.3750   -35.6480 O.3    1946  TIP1796    -0.4105
 24749 H1          32.5760   -13.9370   -35.1670 H      1946  TIP1796     0.2052
 24750 H2          32.2080   -12.4850   -35.3880 H      1946  TIP1796     0.2052
 24751 OH2        -17.9210   -19.1480   -33.7380 O.3    1947  TIP1797    -0.4105
 24752 H1         -18.6590   -19.6810   -34.0320 H      1947  TIP1797     0.2052
 24753 H2         -18.0850   -19.0050   -32.8050 H      1947  TIP1797     0.2052
 24754 OH2          8.1380    22.6760   -47.8330 O.3    1948  TIP1798    -0.4105
 24755 H1           9.0030    22.3250   -47.6220 H      1948  TIP1798     0.2052
 24756 H2           7.9130    22.2720   -48.6720 H      1948  TIP1798     0.2052
 24757 OH2         -8.0230    28.7020    30.6920 O.3    1949  TIP1799    -0.4105
 24758 H1          -7.2500    29.2010    30.9560 H      1949  TIP1799     0.2052
 24759 H2          -7.9110    27.8480    31.1090 H      1949  TIP1799     0.2052
 24760 OH2        -25.8060    28.0030   -44.0990 O.3    1950  TIP1800    -0.4105
 24761 H1         -25.5150    27.4050   -44.7880 H      1950  TIP1800     0.2052
 24762 H2         -25.6910    28.8760   -44.4750 H      1950  TIP1800     0.2052
 24763 OH2         23.4750    -7.3020   -11.6370 O.3    1951  TIP1801    -0.4105
 24764 H1          22.5780    -7.2130   -11.3160 H      1951  TIP1801     0.2052
 24765 H2          23.7730    -6.4010   -11.7690 H      1951  TIP1801     0.2052
 24766 OH2         32.8480    -1.1570   -47.3700 O.3    1952  TIP1802    -0.4105
 24767 H1          32.5790    -1.3820   -48.2610 H      1952  TIP1802     0.2052
 24768 H2          32.7650    -0.2040   -47.3280 H      1952  TIP1802     0.2052
 24769 OH2          3.8430     8.3720   -16.7960 O.3    1953  TIP1803    -0.4105
 24770 H1           4.5600     8.1340   -17.3830 H      1953  TIP1803     0.2052
 24771 H2           4.1060     9.2150   -16.4270 H      1953  TIP1803     0.2052
 24772 OH2        -24.1830   -24.3760   -37.8630 O.3    1954  TIP1804    -0.4105
 24773 H1         -23.4930   -24.3010   -38.5220 H      1954  TIP1804     0.2052
 24774 H2         -24.9860   -24.1430   -38.3290 H      1954  TIP1804     0.2052
 24775 OH2        -26.7070     2.1710    27.8560 O.3    1955  TIP1805    -0.4105
 24776 H1         -27.0580     2.5370    27.0430 H      1955  TIP1805     0.2052
 24777 H2         -27.3910     2.3330    28.5060 H      1955  TIP1805     0.2052
 24778 OH2        -22.5750    -2.6040   -43.2730 O.3    1956  TIP1806    -0.4105
 24779 H1         -22.3000    -2.6460   -42.3570 H      1956  TIP1806     0.2052
 24780 H2         -23.0770    -3.4070   -43.4100 H      1956  TIP1806     0.2052
 24781 OH2        -31.5220   -26.5200    38.3790 O.3    1957  TIP1807    -0.4105
 24782 H1         -31.0920   -26.5940    39.2310 H      1957  TIP1807     0.2052
 24783 H2         -31.3140   -25.6350    38.0810 H      1957  TIP1807     0.2052
 24784 OH2         15.7840     9.4090   -48.7660 O.3    1958  TIP1808    -0.4105
 24785 H1          15.3520     8.8380   -48.1310 H      1958  TIP1808     0.2052
 24786 H2          15.0980     9.6310   -49.3950 H      1958  TIP1808     0.2052
 24787 OH2         26.9530    -1.4810    19.1920 O.3    1959  TIP1809    -0.4105
 24788 H1          26.4760    -2.1700    18.7310 H      1959  TIP1809     0.2052
 24789 H2          26.2770    -0.8530    19.4500 H      1959  TIP1809     0.2052
 24790 OH2         20.0210    28.6590   -24.1060 O.3    1960  TIP1810    -0.4105
 24791 H1          20.5680    28.2000   -24.7430 H      1960  TIP1810     0.2052
 24792 H2          20.4380    28.4850   -23.2620 H      1960  TIP1810     0.2052
 24793 OH2         18.8260    32.7030    34.7700 O.3    1961  TIP1811    -0.4105
 24794 H1          19.1280    32.7960    35.6740 H      1961  TIP1811     0.2052
 24795 H2          17.9400    32.3480    34.8480 H      1961  TIP1811     0.2052
 24796 OH2         19.1840    -7.0140    25.6580 O.3    1962  TIP1812    -0.4105
 24797 H1          19.0800    -7.7840    25.0990 H      1962  TIP1812     0.2052
 24798 H2          18.4540    -7.0650    26.2750 H      1962  TIP1812     0.2052
 24799 OH2         -2.2610    -8.1730   -42.9410 O.3    1963  TIP1813    -0.4105
 24800 H1          -1.6950    -7.4330   -42.7220 H      1963  TIP1813     0.2052
 24801 H2          -2.7770    -7.8670   -43.6870 H      1963  TIP1813     0.2052
 24802 OH2        -20.2540    25.8720    39.1530 O.3    1964  TIP1814    -0.4105
 24803 H1         -19.5300    25.2550    39.0450 H      1964  TIP1814     0.2052
 24804 H2         -20.8050    25.4790    39.8300 H      1964  TIP1814     0.2052
 24805 OH2        -15.5520    32.5540    54.4670 O.3    1965  TIP1815    -0.4105
 24806 H1         -16.0980    33.2430    54.8460 H      1965  TIP1815     0.2052
 24807 H2         -15.8010    31.7620    54.9430 H      1965  TIP1815     0.2052
 24808 OH2         13.2220    -5.0110    44.0120 O.3    1966  TIP1816    -0.4105
 24809 H1          12.5300    -4.4460    43.6680 H      1966  TIP1816     0.2052
 24810 H2          13.7910    -4.4210    44.5050 H      1966  TIP1816     0.2052
 24811 OH2          8.1020    -8.1430   -28.0480 O.3    1967  TIP1817    -0.4105
 24812 H1           8.0100    -7.2130   -27.8410 H      1967  TIP1817     0.2052
 24813 H2           8.0830    -8.5810   -27.1970 H      1967  TIP1817     0.2052
 24814 OH2          3.2580   -17.5310   -40.2420 O.3    1968  TIP1818    -0.4105
 24815 H1           2.8340   -18.3890   -40.1950 H      1968  TIP1818     0.2052
 24816 H2           4.1830   -17.7280   -40.3860 H      1968  TIP1818     0.2052
 24817 OH2         30.4020   -15.1880   -37.2240 O.3    1969  TIP1819    -0.4105
 24818 H1          30.7670   -14.6670   -36.5080 H      1969  TIP1819     0.2052
 24819 H2          31.0160   -15.9150   -37.3280 H      1969  TIP1819     0.2052
 24820 OH2        -21.1860    13.1570    45.9940 O.3    1970  TIP1820    -0.4105
 24821 H1         -21.1260    12.2110    46.1240 H      1970  TIP1820     0.2052
 24822 H2         -20.5660    13.3420    45.2880 H      1970  TIP1820     0.2052
 24823 OH2         -4.6900     3.0570   -48.9520 O.3    1971  TIP1821    -0.4105
 24824 H1          -5.0290     2.7650   -49.7990 H      1971  TIP1821     0.2052
 24825 H2          -3.7540     3.1920   -49.1020 H      1971  TIP1821     0.2052
 24826 OH2        -20.7840   -14.5540   -34.7470 O.3    1972  TIP1822    -0.4105
 24827 H1         -21.2230   -15.2440   -35.2450 H      1972  TIP1822     0.2052
 24828 H2         -20.8460   -13.7790   -35.3060 H      1972  TIP1822     0.2052
 24829 OH2        -26.0150   -29.3140   -46.7630 O.3    1973  TIP1823    -0.4105
 24830 H1         -26.5760   -29.6290   -46.0540 H      1973  TIP1823     0.2052
 24831 H2         -26.5920   -28.7770   -47.3050 H      1973  TIP1823     0.2052
 24832 OH2         24.4860    18.9690   -48.2120 O.3    1974  TIP1824    -0.4105
 24833 H1          25.4150    19.1810   -48.1250 H      1974  TIP1824     0.2052
 24834 H2          24.2140    18.7140   -47.3300 H      1974  TIP1824     0.2052
 24835 OH2        -30.9830   -21.6630   -25.7210 O.3    1975  TIP1825    -0.4105
 24836 H1         -30.5280   -21.6040   -24.8810 H      1975  TIP1825     0.2052
 24837 H2         -31.8790   -21.3870   -25.5290 H      1975  TIP1825     0.2052
 24838 OH2         16.9450   -31.1220   -55.0990 O.3    1976  TIP1826    -0.4105
 24839 H1          16.9020   -30.5130   -55.8360 H      1976  TIP1826     0.2052
 24840 H2          16.2560   -31.7620   -55.2750 H      1976  TIP1826     0.2052
 24841 OH2          0.4700    23.4940   -48.2820 O.3    1977  TIP1827    -0.4105
 24842 H1           0.3990    24.3140   -48.7690 H      1977  TIP1827     0.2052
 24843 H2           1.0270    22.9380   -48.8270 H      1977  TIP1827     0.2052
 24844 OH2        -13.4130    17.9950    32.6880 O.3    1978  TIP1828    -0.4105
 24845 H1         -12.6160    17.4770    32.5720 H      1978  TIP1828     0.2052
 24846 H2         -13.5230    18.4540    31.8550 H      1978  TIP1828     0.2052
 24847 OH2         22.6080    -7.7250    25.0760 O.3    1979  TIP1829    -0.4105
 24848 H1          22.1330    -8.3710    25.5990 H      1979  TIP1829     0.2052
 24849 H2          21.9510    -7.3700    24.4780 H      1979  TIP1829     0.2052
 24850 OH2         -1.9780     3.7330   -49.3420 O.3    1980  TIP1830    -0.4105
 24851 H1          -1.4360     3.5470   -50.1090 H      1980  TIP1830     0.2052
 24852 H2          -1.4530     3.4340   -48.5990 H      1980  TIP1830     0.2052
 24853 OH2        -17.0080   -10.5580   -24.4180 O.3    1981  TIP1831    -0.4105
 24854 H1         -16.4620    -9.9000   -24.8490 H      1981  TIP1831     0.2052
 24855 H2         -17.5500   -10.9170   -25.1210 H      1981  TIP1831     0.2052
 24856 OH2        -23.4910   -22.5290   -52.2930 O.3    1982  TIP1832    -0.4105
 24857 H1         -22.8670   -21.8940   -52.6450 H      1982  TIP1832     0.2052
 24858 H2         -23.4050   -23.2920   -52.8650 H      1982  TIP1832     0.2052
 24859 OH2         30.2850    -4.0120    28.6760 O.3    1983  TIP1833    -0.4105
 24860 H1          30.0100    -3.6670    27.8270 H      1983  TIP1833     0.2052
 24861 H2          29.7510    -4.7960    28.8010 H      1983  TIP1833     0.2052
 24862 OH2          9.5110   -17.2180    44.0940 O.3    1984  TIP1834    -0.4105
 24863 H1          10.2460   -17.6530    43.6620 H      1984  TIP1834     0.2052
 24864 H2           9.4440   -16.3690    43.6570 H      1984  TIP1834     0.2052
 24865 OH2         32.0750     0.9340   -31.1880 O.3    1985  TIP1835    -0.4105
 24866 H1          32.3830     1.5770   -31.8270 H      1985  TIP1835     0.2052
 24867 H2          32.8290     0.3620   -31.0410 H      1985  TIP1835     0.2052
 24868 OH2        -29.4130    17.9900   -46.0230 O.3    1986  TIP1836    -0.4105
 24869 H1         -29.4260    18.8620   -46.4170 H      1986  TIP1836     0.2052
 24870 H2         -30.3040    17.6600   -46.1400 H      1986  TIP1836     0.2052
 24871 OH2         16.0160    30.9010    32.4330 O.3    1987  TIP1837    -0.4105
 24872 H1          15.8760    30.6810    33.3540 H      1987  TIP1837     0.2052
 24873 H2          16.7370    31.5300    32.4440 H      1987  TIP1837     0.2052
 24874 OH2         13.8960    27.6920    22.8160 O.3    1988  TIP1838    -0.4105
 24875 H1          14.5060    28.3370    22.4570 H      1988  TIP1838     0.2052
 24876 H2          13.1950    27.6370    22.1660 H      1988  TIP1838     0.2052
 24877 OH2        -21.5820    19.9480    39.9570 O.3    1989  TIP1839    -0.4105
 24878 H1         -21.6250    18.9950    39.8700 H      1989  TIP1839     0.2052
 24879 H2         -20.6480    20.1510    39.9060 H      1989  TIP1839     0.2052
 24880 OH2          8.0740   -20.9640   -47.9090 O.3    1990  TIP1840    -0.4105
 24881 H1           8.7770   -20.5940   -48.4420 H      1990  TIP1840     0.2052
 24882 H2           8.4240   -21.7980   -47.5950 H      1990  TIP1840     0.2052
 24883 OH2         -2.9150    31.4690    15.3180 O.3    1991  TIP1841    -0.4105
 24884 H1          -2.8260    30.5170    15.3590 H      1991  TIP1841     0.2052
 24885 H2          -2.0150    31.7950    15.3370 H      1991  TIP1841     0.2052
 24886 OH2          4.0260   -31.4100   -49.0710 O.3    1992  TIP1842    -0.4105
 24887 H1           3.6860   -32.2820   -49.2710 H      1992  TIP1842     0.2052
 24888 H2           3.3390   -31.0000   -48.5450 H      1992  TIP1842     0.2052
 24889 OH2          5.1140   -17.2540    36.6640 O.3    1993  TIP1843    -0.4105
 24890 H1           6.0640   -17.1720    36.7470 H      1993  TIP1843     0.2052
 24891 H2           4.8270   -17.5960    37.5110 H      1993  TIP1843     0.2052
 24892 OH2         28.3230    -6.6530    33.8650 O.3    1994  TIP1844    -0.4105
 24893 H1          29.2690    -6.7950    33.8340 H      1994  TIP1844     0.2052
 24894 H2          27.9460    -7.4950    33.6110 H      1994  TIP1844     0.2052
 24895 OH2        -24.5380    30.4900   -52.1260 O.3    1995  TIP1845    -0.4105
 24896 H1         -25.4140    30.3520   -51.7680 H      1995  TIP1845     0.2052
 24897 H2         -24.1810    29.6080   -52.2330 H      1995  TIP1845     0.2052
 24898 OH2        -18.7520    11.1460   -41.5570 O.3    1996  TIP1846    -0.4105
 24899 H1         -18.1020    10.4460   -41.4900 H      1996  TIP1846     0.2052
 24900 H2         -18.2510    11.9520   -41.4320 H      1996  TIP1846     0.2052
 24901 OH2         21.1850    -7.0480    51.4030 O.3    1997  TIP1847    -0.4105
 24902 H1          20.5240    -6.3560    51.3710 H      1997  TIP1847     0.2052
 24903 H2          20.8440    -7.6780    52.0370 H      1997  TIP1847     0.2052
 24904 OH2         -6.0890    30.0990   -55.4130 O.3    1998  TIP1848    -0.4105
 24905 H1          -5.1440    29.9720   -55.4970 H      1998  TIP1848     0.2052
 24906 H2          -6.3360    29.5690   -54.6550 H      1998  TIP1848     0.2052
 24907 OH2        -15.1020   -29.0480   -42.7330 O.3    1999  TIP1849    -0.4105
 24908 H1         -14.9380   -29.8680   -43.1990 H      1999  TIP1849     0.2052
 24909 H2         -15.8350   -29.2470   -42.1500 H      1999  TIP1849     0.2052
 24910 OH2        -29.7680    -6.9090    22.7060 O.3    2000  TIP1850    -0.4105
 24911 H1         -29.2760    -7.6140    22.2840 H      2000  TIP1850     0.2052
 24912 H2         -29.1020    -6.2690    22.9580 H      2000  TIP1850     0.2052
 24913 OH2         -2.9290    30.6630   -40.3490 O.3    2001  TIP1851    -0.4105
 24914 H1          -2.7770    31.5320   -40.7200 H      2001  TIP1851     0.2052
 24915 H2          -3.5940    30.2730   -40.9150 H      2001  TIP1851     0.2052
 24916 OH2         -3.3870    15.2230   -27.0580 O.3    2002  TIP1852    -0.4105
 24917 H1          -2.9220    16.0120   -27.3360 H      2002  TIP1852     0.2052
 24918 H2          -3.9810    15.0260   -27.7820 H      2002  TIP1852     0.2052
 24919 OH2        -12.8030   -31.4820   -27.2540 O.3    2003  TIP1853    -0.4105
 24920 H1         -12.9500   -31.0900   -26.3930 H      2003  TIP1853     0.2052
 24921 H2         -12.2890   -32.2690   -27.0750 H      2003  TIP1853     0.2052
 24922 OH2         13.7610    12.4010   -32.2520 O.3    2004  TIP1854    -0.4105
 24923 H1          12.8630    12.1780   -32.0090 H      2004  TIP1854     0.2052
 24924 H2          13.7470    13.3500   -32.3780 H      2004  TIP1854     0.2052
 24925 OH2          8.3960    -4.8600   -42.9060 O.3    2005  TIP1855    -0.4105
 24926 H1           8.5100    -5.3750   -42.1070 H      2005  TIP1855     0.2052
 24927 H2           9.2110    -4.3650   -42.9900 H      2005  TIP1855     0.2052
 24928 OH2        -14.9030    -5.6270   -50.0400 O.3    2006  TIP1856    -0.4105
 24929 H1         -14.1500    -5.4100   -50.5890 H      2006  TIP1856     0.2052
 24930 H2         -14.9760    -6.5800   -50.0970 H      2006  TIP1856     0.2052
 24931 OH2         -6.7290   -19.5030   -30.3070 O.3    2007  TIP1857    -0.4105
 24932 H1          -5.8150   -19.2760   -30.1370 H      2007  TIP1857     0.2052
 24933 H2          -7.2320   -18.9160   -29.7420 H      2007  TIP1857     0.2052
 24934 OH2        -15.4790    15.0780   -38.5630 O.3    2008  TIP1858    -0.4105
 24935 H1         -14.5510    15.0940   -38.3260 H      2008  TIP1858     0.2052
 24936 H2         -15.5310    15.6010   -39.3630 H      2008  TIP1858     0.2052
 24937 OH2         31.8180     0.5330    32.9790 O.3    2009  TIP1859    -0.4105
 24938 H1          31.7950    -0.1170    33.6810 H      2009  TIP1859     0.2052
 24939 H2          32.5620     0.2720    32.4350 H      2009  TIP1859     0.2052
 24940 OH2         19.9730   -18.8670    53.9920 O.3    2010  TIP1860    -0.4105
 24941 H1          19.3270   -19.4050    54.4490 H      2010  TIP1860     0.2052
 24942 H2          20.8180   -19.1890    54.3060 H      2010  TIP1860     0.2052
 24943 OH2          6.5910   -17.9320    48.5510 O.3    2011  TIP1861    -0.4105
 24944 H1           7.1270   -17.3570    49.0970 H      2011  TIP1861     0.2052
 24945 H2           6.5170   -18.7420    49.0550 H      2011  TIP1861     0.2052
 24946 OH2        -23.6320    27.1690    48.9950 O.3    2012  TIP1862    -0.4105
 24947 H1         -23.6100    27.3550    48.0560 H      2012  TIP1862     0.2052
 24948 H2         -24.5400    27.3330    49.2500 H      2012  TIP1862     0.2052
 24949 OH2         -4.3500    32.9250   -33.3980 O.3    2013  TIP1863    -0.4105
 24950 H1          -5.1150    32.8070   -32.8350 H      2013  TIP1863     0.2052
 24951 H2          -4.5600    32.4370   -34.1950 H      2013  TIP1863     0.2052
 24952 OH2        -24.0250    -1.5570   -38.0390 O.3    2014  TIP1864    -0.4105
 24953 H1         -23.8230    -2.4830   -37.9040 H      2014  TIP1864     0.2052
 24954 H2         -23.2460    -1.0940   -37.7320 H      2014  TIP1864     0.2052
 24955 OH2         -1.4620    20.8010   -40.5200 O.3    2015  TIP1865    -0.4105
 24956 H1          -0.7270    20.7130   -41.1280 H      2015  TIP1865     0.2052
 24957 H2          -2.2230    20.5080   -41.0200 H      2015  TIP1865     0.2052
 24958 OH2         10.6130   -27.7310    45.7180 O.3    2016  TIP1866    -0.4105
 24959 H1           9.8000   -28.2320    45.6650 H      2016  TIP1866     0.2052
 24960 H2          11.1520   -28.2120    46.3450 H      2016  TIP1866     0.2052
 24961 OH2         22.8370     8.7530   -35.4480 O.3    2017  TIP1867    -0.4105
 24962 H1          22.5670     7.8750   -35.1780 H      2017  TIP1867     0.2052
 24963 H2          23.6310     8.6120   -35.9630 H      2017  TIP1867     0.2052
 24964 OH2         -3.8970    -7.8740    52.8880 O.3    2018  TIP1868    -0.4105
 24965 H1          -4.4800    -8.1460    53.5960 H      2018  TIP1868     0.2052
 24966 H2          -4.2880    -8.2480    52.0980 H      2018  TIP1868     0.2052
 24967 OH2         32.4500     4.9950   -43.1010 O.3    2019  TIP1869    -0.4105
 24968 H1          31.9700     5.4120   -42.3860 H      2019  TIP1869     0.2052
 24969 H2          33.2530     4.6690   -42.6930 H      2019  TIP1869     0.2052
 24970 OH2          7.6760     2.6240    23.3440 O.3    2020  TIP1870    -0.4105
 24971 H1           6.7890     2.5290    23.6910 H      2020  TIP1870     0.2052
 24972 H2           7.6170     3.3600    22.7350 H      2020  TIP1870     0.2052
 24973 OH2        -28.7890   -29.0420   -30.0610 O.3    2021  TIP1871    -0.4105
 24974 H1         -28.5020   -28.6130   -30.8670 H      2021  TIP1871     0.2052
 24975 H2         -28.3810   -28.5340   -29.3600 H      2021  TIP1871     0.2052
 24976 OH2          8.5170   -29.5540   -40.5130 O.3    2022  TIP1872    -0.4105
 24977 H1           8.1060   -29.5280   -41.3770 H      2022  TIP1872     0.2052
 24978 H2           8.1960   -30.3650   -40.1180 H      2022  TIP1872     0.2052
 24979 OH2         18.4110    19.4670   -34.1640 O.3    2023  TIP1873    -0.4105
 24980 H1          17.7760    19.3400   -33.4590 H      2023  TIP1873     0.2052
 24981 H2          19.0600    20.0670   -33.7970 H      2023  TIP1873     0.2052
 24982 OH2         25.7070    22.5130    44.5030 O.3    2024  TIP1874    -0.4105
 24983 H1          24.9750    21.9690    44.2110 H      2024  TIP1874     0.2052
 24984 H2          26.2030    21.9500    45.0970 H      2024  TIP1874     0.2052
 24985 OH2        -18.4480   -29.4830    24.4050 O.3    2025  TIP1875    -0.4105
 24986 H1         -18.2600   -28.6090    24.7450 H      2025  TIP1875     0.2052
 24987 H2         -19.2920   -29.3920    23.9630 H      2025  TIP1875     0.2052
 24988 OH2          5.5680   -18.4890    55.3890 O.3    2026  TIP1876    -0.4105
 24989 H1           5.7910   -19.3840    55.1330 H      2026  TIP1876     0.2052
 24990 H2           4.9690   -18.5930    56.1280 H      2026  TIP1876     0.2052
 24991 OH2         -9.3590    -5.5590    53.3150 O.3    2027  TIP1877    -0.4105
 24992 H1          -8.5200    -5.9400    53.5760 H      2027  TIP1877     0.2052
 24993 H2          -9.1900    -4.6180    53.2670 H      2027  TIP1877     0.2052
 24994 OH2          8.6840     4.4260    48.1540 O.3    2028  TIP1878    -0.4105
 24995 H1           9.0490     3.8130    48.7920 H      2028  TIP1878     0.2052
 24996 H2           8.7540     5.2820    48.5760 H      2028  TIP1878     0.2052
 24997 OH2         27.2280    18.4410    43.0480 O.3    2029  TIP1879    -0.4105
 24998 H1          27.5360    17.8410    43.7270 H      2029  TIP1879     0.2052
 24999 H2          26.2780    18.3280    43.0410 H      2029  TIP1879     0.2052
 25000 OH2        -22.3010    -0.1780   -49.1270 O.3    2030  TIP1880    -0.4105
 25001 H1         -23.0530     0.3870   -49.3070 H      2030  TIP1880     0.2052
 25002 H2         -22.2270    -0.7330   -49.9030 H      2030  TIP1880     0.2052
 25003 OH2         11.1630   -20.0750   -38.9390 O.3    2031  TIP1881    -0.4105
 25004 H1          10.2430   -20.2130   -39.1660 H      2031  TIP1881     0.2052
 25005 H2          11.3410   -20.7200   -38.2550 H      2031  TIP1881     0.2052
 25006 OH2         -3.2300    -7.8270   -12.8950 O.3    2032  TIP1882    -0.4105
 25007 H1          -2.6790    -7.5260   -13.6180 H      2032  TIP1882     0.2052
 25008 H2          -2.9950    -7.2570   -12.1620 H      2032  TIP1882     0.2052
 25009 OH2         20.7800   -22.2360    31.4230 O.3    2033  TIP1883    -0.4105
 25010 H1          20.9490   -22.6600    30.5820 H      2033  TIP1883     0.2052
 25011 H2          21.6350   -21.9060    31.7020 H      2033  TIP1883     0.2052
 25012 OH2        -25.5150   -17.0110   -55.0110 O.3    2034  TIP1884    -0.4105
 25013 H1         -26.4500   -16.8110   -54.9650 H      2034  TIP1884     0.2052
 25014 H2         -25.1890   -16.8350   -54.1290 H      2034  TIP1884     0.2052
 25015 OH2         -6.3960    -4.1320    46.9420 O.3    2035  TIP1885    -0.4105
 25016 H1          -7.2070    -4.3520    46.4840 H      2035  TIP1885     0.2052
 25017 H2          -6.6710    -3.5470    47.6490 H      2035  TIP1885     0.2052
 25018 OH2        -28.0360   -15.1080    31.5850 O.3    2036  TIP1886    -0.4105
 25019 H1         -28.8880   -15.5430    31.6090 H      2036  TIP1886     0.2052
 25020 H2         -28.1230   -14.3760    32.1970 H      2036  TIP1886     0.2052
 25021 OH2         18.5410     8.6880   -48.8280 O.3    2037  TIP1887    -0.4105
 25022 H1          18.7880     8.3480   -49.6880 H      2037  TIP1887     0.2052
 25023 H2          17.6290     8.9600   -48.9310 H      2037  TIP1887     0.2052
 25024 OH2          2.4000    14.9840    26.9250 O.3    2038  TIP1888    -0.4105
 25025 H1           2.8450    14.5550    26.1950 H      2038  TIP1888     0.2052
 25026 H2           1.9390    14.2760    27.3760 H      2038  TIP1888     0.2052
 25027 OH2        -29.4910     5.2560   -49.8060 O.3    2039  TIP1889    -0.4105
 25028 H1         -30.4260     5.0650   -49.8850 H      2039  TIP1889     0.2052
 25029 H2         -29.4450     6.2110   -49.7610 H      2039  TIP1889     0.2052
 25030 OH2        -14.2640    11.2620    33.8560 O.3    2040  TIP1890    -0.4105
 25031 H1         -13.3400    11.4180    34.0480 H      2040  TIP1890     0.2052
 25032 H2         -14.7050    12.0690    34.1220 H      2040  TIP1890     0.2052
 25033 OH2         -1.8320    27.1080    20.8650 O.3    2041  TIP1891    -0.4105
 25034 H1          -1.9500    27.2280    19.9230 H      2041  TIP1891     0.2052
 25035 H2          -1.0010    26.6400    20.9450 H      2041  TIP1891     0.2052
 25036 OH2         -1.6510    20.3260    26.1270 O.3    2042  TIP1892    -0.4105
 25037 H1          -2.2060    19.9970    25.4200 H      2042  TIP1892     0.2052
 25038 H2          -1.5890    21.2680    25.9650 H      2042  TIP1892     0.2052
 25039 OH2        -14.4390     6.4460    23.2660 O.3    2043  TIP1893    -0.4105
 25040 H1         -14.6490     6.1260    22.3890 H      2043  TIP1893     0.2052
 25041 H2         -13.6090     6.9110    23.1590 H      2043  TIP1893     0.2052
 25042 OH2        -15.9060   -16.1620   -23.7080 O.3    2044  TIP1894    -0.4105
 25043 H1         -15.8020   -17.1120   -23.7610 H      2044  TIP1894     0.2052
 25044 H2         -16.7420   -16.0370   -23.2590 H      2044  TIP1894     0.2052
 25045 OH2          6.3770    31.3030   -47.5370 O.3    2045  TIP1895    -0.4105
 25046 H1           5.4290    31.4280   -47.4870 H      2045  TIP1895     0.2052
 25047 H2           6.5800    31.3770   -48.4690 H      2045  TIP1895     0.2052
 25048 OH2         22.7060    31.9040    52.4400 O.3    2046  TIP1896    -0.4105
 25049 H1          22.9290    32.7350    52.0200 H      2046  TIP1896     0.2052
 25050 H2          21.7530    31.9240    52.5210 H      2046  TIP1896     0.2052
 25051 OH2         26.8240   -25.9250   -38.2130 O.3    2047  TIP1897    -0.4105
 25052 H1          27.2770   -26.3530   -38.9400 H      2047  TIP1897     0.2052
 25053 H2          26.4910   -25.1090   -38.5850 H      2047  TIP1897     0.2052
 25054 OH2         13.0550    -0.6980    54.1760 O.3    2048  TIP1898    -0.4105
 25055 H1          13.1730    -0.5460    53.2390 H      2048  TIP1898     0.2052
 25056 H2          13.6450    -0.0730    54.5970 H      2048  TIP1898     0.2052
 25057 OH2          5.8040   -22.2150    19.5790 O.3    2049  TIP1899    -0.4105
 25058 H1           5.0510   -22.4970    20.0980 H      2049  TIP1899     0.2052
 25059 H2           6.3670   -21.7560    20.2030 H      2049  TIP1899     0.2052
 25060 OH2         -4.5430   -28.7030    22.9880 O.3    2050  TIP1900    -0.4105
 25061 H1          -3.9830   -29.4790    22.9690 H      2050  TIP1900     0.2052
 25062 H2          -4.6390   -28.4980    23.9180 H      2050  TIP1900     0.2052
 25063 OH2          5.6230    17.1420    28.5590 O.3    2051  TIP1901    -0.4105
 25064 H1           5.6050    17.9570    29.0620 H      2051  TIP1901     0.2052
 25065 H2           4.7110    16.9930    28.3120 H      2051  TIP1901     0.2052
 25066 OH2        -18.5650    29.7170    19.6200 O.3    2052  TIP1902    -0.4105
 25067 H1         -18.4080    30.1680    18.7900 H      2052  TIP1902     0.2052
 25068 H2         -18.0120    28.9370    19.5770 H      2052  TIP1902     0.2052
 25069 OH2         -4.3210   -31.0400    53.3120 O.3    2053  TIP1903    -0.4105
 25070 H1          -3.6530   -30.4270    53.0050 H      2053  TIP1903     0.2052
 25071 H2          -3.8830   -31.8900    53.3170 H      2053  TIP1903     0.2052
 25072 OH2          4.1890     4.4180   -24.4040 O.3    2054  TIP1904    -0.4105
 25073 H1           3.6310     4.7180   -25.1210 H      2054  TIP1904     0.2052
 25074 H2           3.5760     4.1140   -23.7340 H      2054  TIP1904     0.2052
 25075 OH2         21.8210   -26.8270   -37.0520 O.3    2055  TIP1905    -0.4105
 25076 H1          21.4710   -26.1250   -36.5040 H      2055  TIP1905     0.2052
 25077 H2          22.7710   -26.7190   -37.0040 H      2055  TIP1905     0.2052
 25078 OH2         15.1940    32.8860    40.3500 O.3    2056  TIP1906    -0.4105
 25079 H1          14.3780    33.3850    40.3720 H      2056  TIP1906     0.2052
 25080 H2          15.4690    32.9160    39.4330 H      2056  TIP1906     0.2052
 25081 OH2         -7.7040    -1.1210   -45.6250 O.3    2057  TIP1907    -0.4105
 25082 H1          -7.1460    -1.8310   -45.9420 H      2057  TIP1907     0.2052
 25083 H2          -8.5870    -1.3720   -45.8950 H      2057  TIP1907     0.2052
 25084 OH2        -17.9650   -17.0620   -35.6570 O.3    2058  TIP1908    -0.4105
 25085 H1         -18.0210   -17.7290   -34.9720 H      2058  TIP1908     0.2052
 25086 H2         -17.9540   -16.2310   -35.1830 H      2058  TIP1908     0.2052
 25087 OH2          6.1520    -0.2260    31.8030 O.3    2059  TIP1909    -0.4105
 25088 H1           5.5090    -0.6030    32.4030 H      2059  TIP1909     0.2052
 25089 H2           5.7570     0.5980    31.5140 H      2059  TIP1909     0.2052
 25090 OH2          0.6200     1.0870   -29.6880 O.3    2060  TIP1910    -0.4105
 25091 H1           0.4730     0.9570   -30.6250 H      2060  TIP1910     0.2052
 25092 H2           1.1290     0.3230   -29.4160 H      2060  TIP1910     0.2052
 25093 OH2        -26.9900   -12.7970   -47.4340 O.3    2061  TIP1911    -0.4105
 25094 H1         -27.9210   -12.6480   -47.2720 H      2061  TIP1911     0.2052
 25095 H2         -26.9600   -13.2130   -48.2960 H      2061  TIP1911     0.2052
 25096 OH2         28.6410    -7.7870   -53.4200 O.3    2062  TIP1912    -0.4105
 25097 H1          29.3410    -8.4290   -53.3020 H      2062  TIP1912     0.2052
 25098 H2          28.5430    -7.7100   -54.3690 H      2062  TIP1912     0.2052
 25099 OH2          3.8300   -11.7350    55.3280 O.3    2063  TIP1913    -0.4105
 25100 H1           4.4030   -12.3520    55.7830 H      2063  TIP1913     0.2052
 25101 H2           4.3810   -11.3540    54.6440 H      2063  TIP1913     0.2052
 25102 OH2         21.8160   -13.5830    25.5230 O.3    2064  TIP1914    -0.4105
 25103 H1          21.1460   -14.0210    26.0490 H      2064  TIP1914     0.2052
 25104 H2          21.8420   -12.6890    25.8630 H      2064  TIP1914     0.2052
 25105 OH2         -6.0970    20.8310    31.9740 O.3    2065  TIP1915    -0.4105
 25106 H1          -5.3360    21.1250    31.4730 H      2065  TIP1915     0.2052
 25107 H2          -6.5750    20.2610    31.3710 H      2065  TIP1915     0.2052
 25108 OH2          8.4970    31.5570   -33.5330 O.3    2066  TIP1916    -0.4105
 25109 H1           8.0470    32.4000   -33.5880 H      2066  TIP1916     0.2052
 25110 H2           7.7960    30.9190   -33.3980 H      2066  TIP1916     0.2052
 25111 OH2        -17.2040     6.2250   -19.4180 O.3    2067  TIP1917    -0.4105
 25112 H1         -16.3380     5.8910   -19.6510 H      2067  TIP1917     0.2052
 25113 H2         -17.3830     5.8500   -18.5550 H      2067  TIP1917     0.2052
 25114 OH2        -27.6900    30.3650    34.7870 O.3    2068  TIP1918    -0.4105
 25115 H1         -27.8160    29.5250    34.3460 H      2068  TIP1918     0.2052
 25116 H2         -28.5720    30.7310    34.8620 H      2068  TIP1918     0.2052
 25117 OH2         -2.9400     8.1170   -32.8350 O.3    2069  TIP1919    -0.4105
 25118 H1          -3.2540     9.0100   -32.9760 H      2069  TIP1919     0.2052
 25119 H2          -3.2210     7.9020   -31.9460 H      2069  TIP1919     0.2052
 25120 OH2         15.1960     5.4740    53.3280 O.3    2070  TIP1920    -0.4105
 25121 H1          14.3550     5.9320    53.3120 H      2070  TIP1920     0.2052
 25122 H2          15.6220     5.7250    52.5080 H      2070  TIP1920     0.2052
 25123 OH2        -11.7150    -7.2290   -42.8600 O.3    2071  TIP1921    -0.4105
 25124 H1         -11.8330    -7.1110   -43.8020 H      2071  TIP1921     0.2052
 25125 H2         -12.2120    -8.0200   -42.6530 H      2071  TIP1921     0.2052
 25126 OH2         12.8090    20.5690   -46.6720 O.3    2072  TIP1922    -0.4105
 25127 H1          13.5810    21.1010   -46.8670 H      2072  TIP1922     0.2052
 25128 H2          12.7460    20.5800   -45.7170 H      2072  TIP1922     0.2052
 25129 OH2        -25.9160   -29.2000   -33.8160 O.3    2073  TIP1923    -0.4105
 25130 H1         -26.7000   -28.7000   -33.5900 H      2073  TIP1923     0.2052
 25131 H2         -25.8220   -29.8340   -33.1050 H      2073  TIP1923     0.2052
 25132 OH2        -28.9000   -25.8640   -44.9940 O.3    2074  TIP1924    -0.4105
 25133 H1         -28.3940   -25.2250   -44.4920 H      2074  TIP1924     0.2052
 25134 H2         -28.2560   -26.2860   -45.5630 H      2074  TIP1924     0.2052
 25135 OH2        -28.4380     9.4390    22.5580 O.3    2075  TIP1925    -0.4105
 25136 H1         -29.3490     9.1670    22.6700 H      2075  TIP1925     0.2052
 25137 H2         -28.4340     9.9350    21.7400 H      2075  TIP1925     0.2052
 25138 OH2         32.4940     8.5790    52.4480 O.3    2076  TIP1926    -0.4105
 25139 H1          32.9530     9.3750    52.7160 H      2076  TIP1926     0.2052
 25140 H2          33.0100     8.2390    51.7170 H      2076  TIP1926     0.2052
 25141 OH2        -23.2890   -19.5590   -22.0660 O.3    2077  TIP1927    -0.4105
 25142 H1         -22.4100   -19.8020   -21.7730 H      2077  TIP1927     0.2052
 25143 H2         -23.5610   -18.8680   -21.4610 H      2077  TIP1927     0.2052
 25144 OH2         28.6350    -7.6080    21.8350 O.3    2078  TIP1928    -0.4105
 25145 H1          29.2850    -7.8310    21.1690 H      2078  TIP1928     0.2052
 25146 H2          28.4820    -6.6700    21.7170 H      2078  TIP1928     0.2052
 25147 OH2        -10.1260    11.1990    29.0910 O.3    2079  TIP1929    -0.4105
 25148 H1         -10.5960    11.9040    29.5370 H      2079  TIP1929     0.2052
 25149 H2         -10.7260    10.4540    29.1200 H      2079  TIP1929     0.2052
 25150 OH2        -11.0290   -20.6690    53.3900 O.3    2080  TIP1930    -0.4105
 25151 H1         -10.1760   -20.8650    53.0040 H      2080  TIP1930     0.2052
 25152 H2         -11.5540   -21.4520    53.2260 H      2080  TIP1930     0.2052
 25153 OH2        -26.1500   -30.0180    33.6640 O.3    2081  TIP1931    -0.4105
 25154 H1         -25.6120   -30.2390    32.9040 H      2081  TIP1931     0.2052
 25155 H2         -25.5330   -29.6460    34.2950 H      2081  TIP1931     0.2052
 25156 OH2          6.1300    31.7340    33.8290 O.3    2082  TIP1932    -0.4105
 25157 H1           5.2820    31.9180    34.2340 H      2082  TIP1932     0.2052
 25158 H2           6.7570    31.7820    34.5510 H      2082  TIP1932     0.2052
 25159 OH2          7.4820    -6.6560   -36.2620 O.3    2083  TIP1933    -0.4105
 25160 H1           6.7880    -6.5920   -36.9180 H      2083  TIP1933     0.2052
 25161 H2           8.2260    -6.2000   -36.6550 H      2083  TIP1933     0.2052
 25162 OH2         -5.9820    12.8890   -41.8220 O.3    2084  TIP1934    -0.4105
 25163 H1          -5.1070    13.2540   -41.9540 H      2084  TIP1934     0.2052
 25164 H2          -5.8910    11.9610   -42.0370 H      2084  TIP1934     0.2052
 25165 OH2         31.0990    14.1050   -46.4350 O.3    2085  TIP1935    -0.4105
 25166 H1          30.7770    13.3030   -46.8480 H      2085  TIP1935     0.2052
 25167 H2          30.4890    14.2670   -45.7160 H      2085  TIP1935     0.2052
 25168 OH2         23.2010    32.8500    36.0010 O.3    2086  TIP1936    -0.4105
 25169 H1          24.0820    32.4810    35.9290 H      2086  TIP1936     0.2052
 25170 H2          23.3420    33.7530    36.2860 H      2086  TIP1936     0.2052
 25171 OH2         -4.5440    21.3790   -30.6200 O.3    2087  TIP1937    -0.4105
 25172 H1          -4.7480    21.7090   -29.7450 H      2087  TIP1937     0.2052
 25173 H2          -5.1080    21.8850   -31.2050 H      2087  TIP1937     0.2052
 25174 OH2         -8.9070    -7.0020   -43.3280 O.3    2088  TIP1938    -0.4105
 25175 H1          -8.5500    -7.4640   -42.5690 H      2088  TIP1938     0.2052
 25176 H2          -9.8370    -6.8960   -43.1280 H      2088  TIP1938     0.2052
 25177 OH2         29.1970   -31.8830    39.9820 O.3    2089  TIP1939    -0.4105
 25178 H1          29.1450   -32.3730    40.8030 H      2089  TIP1939     0.2052
 25179 H2          28.5370   -32.2870    39.4190 H      2089  TIP1939     0.2052
 25180 OH2         33.0480   -15.3360    24.8610 O.3    2090  TIP1940    -0.4105
 25181 H1          32.3340   -14.7210    25.0280 H      2090  TIP1940     0.2052
 25182 H2          32.8470   -15.7110    24.0040 H      2090  TIP1940     0.2052
 25183 OH2        -22.8700   -30.9790   -26.8780 O.3    2091  TIP1941    -0.4105
 25184 H1         -22.6080   -30.4040   -26.1590 H      2091  TIP1941     0.2052
 25185 H2         -22.1910   -30.8580   -27.5420 H      2091  TIP1941     0.2052
 25186 OH2          3.2570   -20.7080    26.7010 O.3    2092  TIP1942    -0.4105
 25187 H1           2.3930   -20.9300    27.0480 H      2092  TIP1942     0.2052
 25188 H2           3.0780   -20.3130    25.8470 H      2092  TIP1942     0.2052
 25189 OH2         24.2600   -29.5720    33.9850 O.3    2093  TIP1943    -0.4105
 25190 H1          23.3820   -29.7120    34.3410 H      2093  TIP1943     0.2052
 25191 H2          24.1650   -28.8170    33.4040 H      2093  TIP1943     0.2052
 25192 OH2        -24.1420    -4.1640    52.7550 O.3    2094  TIP1944    -0.4105
 25193 H1         -24.8020    -4.8570    52.7860 H      2094  TIP1944     0.2052
 25194 H2         -23.3050    -4.6280    52.7770 H      2094  TIP1944     0.2052
 25195 OH2        -15.0600   -19.5240    24.2030 O.3    2095  TIP1945    -0.4105
 25196 H1         -14.5040   -19.9910    23.5790 H      2095  TIP1945     0.2052
 25197 H2         -15.0110   -20.0450    25.0040 H      2095  TIP1945     0.2052
 25198 OH2         -2.2090     8.5680    24.6360 O.3    2096  TIP1946    -0.4105
 25199 H1          -2.6160     7.9310    25.2230 H      2096  TIP1946     0.2052
 25200 H2          -1.2920     8.5950    24.9100 H      2096  TIP1946     0.2052
 25201 OH2        -22.9580    11.1970   -51.2670 O.3    2097  TIP1947    -0.4105
 25202 H1         -22.7710    10.4340   -51.8140 H      2097  TIP1947     0.2052
 25203 H2         -22.6480    11.9420   -51.7810 H      2097  TIP1947     0.2052
 25204 OH2        -21.0320    31.7100    49.0840 O.3    2098  TIP1948    -0.4105
 25205 H1         -20.4380    31.6630    49.8330 H      2098  TIP1948     0.2052
 25206 H2         -21.8610    32.0140    49.4540 H      2098  TIP1948     0.2052
 25207 OH2         13.9170    24.3740    51.5460 O.3    2099  TIP1949    -0.4105
 25208 H1          14.1780    23.5610    51.9790 H      2099  TIP1949     0.2052
 25209 H2          13.3120    24.7890    52.1600 H      2099  TIP1949     0.2052
 25210 OH2         22.8360    31.1300    38.3760 O.3    2100  TIP1950    -0.4105
 25211 H1          22.9250    31.9930    37.9710 H      2100  TIP1950     0.2052
 25212 H2          22.9920    30.5130    37.6610 H      2100  TIP1950     0.2052
 25213 OH2         -5.2550   -24.0060   -30.9070 O.3    2101  TIP1951    -0.4105
 25214 H1          -5.2980   -24.8840   -31.2850 H      2101  TIP1951     0.2052
 25215 H2          -5.7180   -24.0810   -30.0720 H      2101  TIP1951     0.2052
 25216 OH2          2.0400    31.3610    51.9890 O.3    2102  TIP1952    -0.4105
 25217 H1           2.9380    31.0690    52.1470 H      2102  TIP1952     0.2052
 25218 H2           1.6890    30.7290    51.3610 H      2102  TIP1952     0.2052
 25219 OH2         23.6780    -0.4820    32.4410 O.3    2103  TIP1953    -0.4105
 25220 H1          24.5720    -0.4400    32.7810 H      2103  TIP1953     0.2052
 25221 H2          23.7840    -0.5150    31.4900 H      2103  TIP1953     0.2052
 25222 OH2         27.7770   -16.9560   -46.9190 O.3    2104  TIP1954    -0.4105
 25223 H1          28.1140   -16.5740   -47.7300 H      2104  TIP1954     0.2052
 25224 H2          27.7490   -17.8970   -47.0920 H      2104  TIP1954     0.2052
 25225 OH2         -9.8270   -28.1840    28.0420 O.3    2105  TIP1955    -0.4105
 25226 H1          -9.5460   -28.4940    27.1820 H      2105  TIP1955     0.2052
 25227 H2          -9.7040   -27.2350    28.0070 H      2105  TIP1955     0.2052
 25228 OH2         12.8870    -6.7220   -27.0770 O.3    2106  TIP1956    -0.4105
 25229 H1          13.6710    -6.7370   -26.5290 H      2106  TIP1956     0.2052
 25230 H2          12.4060    -7.5120   -26.8300 H      2106  TIP1956     0.2052
 25231 OH2        -26.6660    10.2050    24.5700 O.3    2107  TIP1957    -0.4105
 25232 H1         -26.0070    10.7260    24.1110 H      2107  TIP1957     0.2052
 25233 H2         -27.2690     9.9210    23.8830 H      2107  TIP1957     0.2052
 25234 OH2         20.8960    12.9710    48.1420 O.3    2108  TIP1958    -0.4105
 25235 H1          20.6880    12.2850    48.7760 H      2108  TIP1958     0.2052
 25236 H2          20.0550    13.1900    47.7410 H      2108  TIP1958     0.2052
 25237 OH2          6.2230    19.4000    46.8390 O.3    2109  TIP1959    -0.4105
 25238 H1           6.6680    19.4640    47.6840 H      2109  TIP1959     0.2052
 25239 H2           5.3950    18.9630    47.0360 H      2109  TIP1959     0.2052
 25240 OH2         13.5610    -1.4770   -30.9560 O.3    2110  TIP1960    -0.4105
 25241 H1          14.3040    -2.0180   -31.2220 H      2110  TIP1960     0.2052
 25242 H2          12.8360    -2.0960   -30.8600 H      2110  TIP1960     0.2052
 25243 OH2          3.5940    -8.6910    42.6720 O.3    2111  TIP1961    -0.4105
 25244 H1           2.7190    -8.9420    42.3740 H      2111  TIP1961     0.2052
 25245 H2           3.6300    -8.9830    43.5830 H      2111  TIP1961     0.2052
 25246 OH2         17.9180    -8.6260    42.4900 O.3    2112  TIP1962    -0.4105
 25247 H1          17.0070    -8.3370    42.4350 H      2112  TIP1962     0.2052
 25248 H2          18.0690    -9.1000    41.6720 H      2112  TIP1962     0.2052
 25249 OH2          7.3250   -30.3250   -22.1670 O.3    2113  TIP1963    -0.4105
 25250 H1           7.6810   -29.4740   -21.9110 H      2113  TIP1963     0.2052
 25251 H2           6.6670   -30.5210   -21.4990 H      2113  TIP1963     0.2052
 25252 OH2         22.8490    32.9450    49.6460 O.3    2114  TIP1964    -0.4105
 25253 H1          22.8510    31.9890    49.5990 H      2114  TIP1964     0.2052
 25254 H2          22.5570    33.2280    48.7790 H      2114  TIP1964     0.2052
 25255 OH2          4.7780   -23.6920    43.3910 O.3    2115  TIP1965    -0.4105
 25256 H1           4.8960   -24.6210    43.5860 H      2115  TIP1965     0.2052
 25257 H2           4.1670   -23.6760    42.6550 H      2115  TIP1965     0.2052
 25258 OH2        -15.7380   -25.1500    37.0410 O.3    2116  TIP1966    -0.4105
 25259 H1         -16.4100   -24.4820    37.1770 H      2116  TIP1966     0.2052
 25260 H2         -15.0360   -24.6930    36.5780 H      2116  TIP1966     0.2052
 25261 OH2        -27.0420   -17.2180    34.6390 O.3    2117  TIP1967    -0.4105
 25262 H1         -26.4270   -17.2770    35.3710 H      2117  TIP1967     0.2052
 25263 H2         -27.8590   -16.9180    35.0360 H      2117  TIP1967     0.2052
 25264 OH2         -0.2210   -30.3130    23.0510 O.3    2118  TIP1968    -0.4105
 25265 H1          -0.2960   -30.8700    23.8260 H      2118  TIP1968     0.2052
 25266 H2          -0.5930   -29.4740    23.3210 H      2118  TIP1968     0.2052
 25267 OH2         11.4550    -5.2050    36.8220 O.3    2119  TIP1969    -0.4105
 25268 H1          12.1620    -5.0760    37.4540 H      2119  TIP1969     0.2052
 25269 H2          10.6580    -4.9820    37.3030 H      2119  TIP1969     0.2052
 25270 OH2         24.8130   -30.6350   -19.9770 O.3    2120  TIP1970    -0.4105
 25271 H1          24.1070   -31.2740   -20.0820 H      2120  TIP1970     0.2052
 25272 H2          25.2910   -30.6680   -20.8060 H      2120  TIP1970     0.2052
 25273 OH2        -16.1980   -25.2920   -47.4670 O.3    2121  TIP1971    -0.4105
 25274 H1         -16.1730   -25.2250   -48.4220 H      2121  TIP1971     0.2052
 25275 H2         -17.0350   -24.8990   -47.2200 H      2121  TIP1971     0.2052
 25276 OH2          7.0860   -14.9870   -53.9940 O.3    2122  TIP1972    -0.4105
 25277 H1           6.6720   -15.5760   -53.3630 H      2122  TIP1972     0.2052
 25278 H2           6.5230   -14.2120   -54.0030 H      2122  TIP1972     0.2052
 25279 OH2        -18.5700    31.7690    38.2060 O.3    2123  TIP1973    -0.4105
 25280 H1         -17.9620    32.5040    38.1290 H      2123  TIP1973     0.2052
 25281 H2         -18.1610    31.0660    37.7020 H      2123  TIP1973     0.2052
 25282 OH2         23.4220    18.6650    27.0820 O.3    2124  TIP1974    -0.4105
 25283 H1          23.6380    17.7380    26.9780 H      2124  TIP1974     0.2052
 25284 H2          23.8770    19.1000    26.3620 H      2124  TIP1974     0.2052
 25285 OH2         24.6860    22.1760    39.9500 O.3    2125  TIP1975    -0.4105
 25286 H1          23.8040    21.8090    40.0100 H      2125  TIP1975     0.2052
 25287 H2          25.2240    21.5960    40.4890 H      2125  TIP1975     0.2052
 25288 OH2        -27.5180    11.4660   -31.6150 O.3    2126  TIP1976    -0.4105
 25289 H1         -26.5770    11.6060   -31.7190 H      2126  TIP1976     0.2052
 25290 H2         -27.5890    10.8170   -30.9150 H      2126  TIP1976     0.2052
 25291 OH2        -27.3270    20.6890   -39.0910 O.3    2127  TIP1977    -0.4105
 25292 H1         -27.7200    21.4620   -39.4970 H      2127  TIP1977     0.2052
 25293 H2         -27.2490    20.9170   -38.1650 H      2127  TIP1977     0.2052
 25294 OH2        -20.3300    -3.7170    40.0840 O.3    2128  TIP1978    -0.4105
 25295 H1         -20.5490    -2.7950    39.9490 H      2128  TIP1978     0.2052
 25296 H2         -19.9050    -3.9850    39.2690 H      2128  TIP1978     0.2052
 25297 OH2         31.2460   -32.6380    27.9780 O.3    2129  TIP1979    -0.4105
 25298 H1          31.7120   -33.3590    28.4010 H      2129  TIP1979     0.2052
 25299 H2          30.4780   -32.4910    28.5300 H      2129  TIP1979     0.2052
 25300 OH2        -15.7630   -31.5380    42.9140 O.3    2130  TIP1980    -0.4105
 25301 H1         -16.1360   -30.6820    43.1240 H      2130  TIP1980     0.2052
 25302 H2         -15.0780   -31.6690    43.5700 H      2130  TIP1980     0.2052
 25303 OH2         17.2090    15.7540    29.7860 O.3    2131  TIP1981    -0.4105
 25304 H1          16.8060    15.8250    28.9210 H      2131  TIP1981     0.2052
 25305 H2          17.0070    14.8630    30.0720 H      2131  TIP1981     0.2052
 25306 OH2         -5.7580    31.7980   -35.3550 O.3    2132  TIP1982    -0.4105
 25307 H1          -6.6810    31.7700   -35.6050 H      2132  TIP1982     0.2052
 25308 H2          -5.2910    31.4670   -36.1230 H      2132  TIP1982     0.2052
 25309 OH2        -30.1510    18.5000    42.7190 O.3    2133  TIP1983    -0.4105
 25310 H1         -31.1020    18.5040    42.8280 H      2133  TIP1983     0.2052
 25311 H2         -29.8280    17.9760    43.4520 H      2133  TIP1983     0.2052
 25312 OH2         -1.7640   -28.7900    20.5510 O.3    2134  TIP1984    -0.4105
 25313 H1          -1.9930   -28.5010    19.6680 H      2134  TIP1984     0.2052
 25314 H2          -1.8450   -29.7440    20.5200 H      2134  TIP1984     0.2052
 25315 OH2         30.9320    19.0970    38.4780 O.3    2135  TIP1985    -0.4105
 25316 H1          30.6190    19.6850    39.1650 H      2135  TIP1985     0.2052
 25317 H2          31.6110    18.5720    38.9020 H      2135  TIP1985     0.2052
 25318 OH2         -8.1290   -31.5030    33.4380 O.3    2136  TIP1986    -0.4105
 25319 H1          -8.5060   -30.6410    33.2580 H      2136  TIP1986     0.2052
 25320 H2          -8.8750   -32.0420    33.6990 H      2136  TIP1986     0.2052
 25321 OH2        -13.4950   -18.8630    33.3530 O.3    2137  TIP1987    -0.4105
 25322 H1         -13.7940   -19.6420    33.8210 H      2137  TIP1987     0.2052
 25323 H2         -12.5560   -18.8190    33.5370 H      2137  TIP1987     0.2052
 25324 OH2         30.2720    22.8020    16.4390 O.3    2138  TIP1988    -0.4105
 25325 H1          29.7110    23.4850    16.8060 H      2138  TIP1988     0.2052
 25326 H2          31.1200    23.2280    16.3160 H      2138  TIP1988     0.2052
 25327 OH2         -4.6360   -30.7430   -30.5530 O.3    2139  TIP1989    -0.4105
 25328 H1          -4.8970   -30.1060   -29.8870 H      2139  TIP1989     0.2052
 25329 H2          -4.0190   -30.2680   -31.1100 H      2139  TIP1989     0.2052
 25330 OH2        -23.9480    31.5180    52.7320 O.3    2140  TIP1990    -0.4105
 25331 H1         -24.7050    31.7720    53.2610 H      2140  TIP1990     0.2052
 25332 H2         -23.2450    32.0990    53.0260 H      2140  TIP1990     0.2052
 25333 OH2        -28.3640    31.4760   -40.1870 O.3    2141  TIP1991    -0.4105
 25334 H1         -28.8790    31.0120   -40.8480 H      2141  TIP1991     0.2052
 25335 H2         -28.9900    32.0640   -39.7640 H      2141  TIP1991     0.2052
 25336 OH2         15.3250     4.8350    19.5560 O.3    2142  TIP1992    -0.4105
 25337 H1          14.9450     5.4370    18.9160 H      2142  TIP1992     0.2052
 25338 H2          16.2680     4.8890    19.4050 H      2142  TIP1992     0.2052
 25339 OH2        -12.3560    18.4070   -33.4990 O.3    2143  TIP1993    -0.4105
 25340 H1         -12.7720    18.0110   -32.7340 H      2143  TIP1993     0.2052
 25341 H2         -12.9500    19.1120   -33.7570 H      2143  TIP1993     0.2052
 25342 OH2        -28.9710   -31.7880    49.6750 O.3    2144  TIP1994    -0.4105
 25343 H1         -28.4660   -32.4960    50.0770 H      2144  TIP1994     0.2052
 25344 H2         -29.4360   -32.2070    48.9510 H      2144  TIP1994     0.2052
 25345 OH2         -6.0690    -7.2280   -52.3320 O.3    2145  TIP1995    -0.4105
 25346 H1          -6.3060    -6.3070   -52.4390 H      2145  TIP1995     0.2052
 25347 H2          -5.2570    -7.3270   -52.8280 H      2145  TIP1995     0.2052
 25348 OH2         17.6900    23.9840   -29.7570 O.3    2146  TIP1996    -0.4105
 25349 H1          18.1990    24.3030   -29.0120 H      2146  TIP1996     0.2052
 25350 H2          18.0550    24.4450   -30.5120 H      2146  TIP1996     0.2052
 25351 OH2         14.3270   -16.2050    27.9700 O.3    2147  TIP1997    -0.4105
 25352 H1          14.7230   -17.0410    27.7240 H      2147  TIP1997     0.2052
 25353 H2          14.1750   -16.2790    28.9120 H      2147  TIP1997     0.2052
 25354 OH2         -6.9280    22.2910   -36.7460 O.3    2148  TIP1998    -0.4105
 25355 H1          -7.2920    22.0360   -35.8990 H      2148  TIP1998     0.2052
 25356 H2          -6.6640    21.4660   -37.1530 H      2148  TIP1998     0.2052
 25357 OH2        -18.4570   -10.4720   -41.0110 O.3    2149  TIP1999    -0.4105
 25358 H1         -18.7040    -9.5710   -41.2190 H      2149  TIP1999     0.2052
 25359 H2         -18.1680   -10.8410   -41.8460 H      2149  TIP1999     0.2052
 25360 OH2        -20.6050    -4.2610    54.5800 O.3    2150  TIP2000    -0.4105
 25361 H1         -19.8590    -4.4250    55.1570 H      2150  TIP2000     0.2052
 25362 H2         -20.4090    -3.4190    54.1680 H      2150  TIP2000     0.2052
 25363 OH2         -2.0550    31.9480    36.2490 O.3    2151  TIP2001    -0.4105
 25364 H1          -2.8310    32.2900    35.8040 H      2151  TIP2001     0.2052
 25365 H2          -2.4020    31.3820    36.9370 H      2151  TIP2001     0.2052
 25366 OH2         20.2070    21.6330   -54.7150 O.3    2152  TIP2002    -0.4105
 25367 H1          19.4570    21.7390   -54.1290 H      2152  TIP2002     0.2052
 25368 H2          19.8860    21.0660   -55.4150 H      2152  TIP2002     0.2052
 25369 OH2        -31.1160    -6.2630   -31.2880 O.3    2153  TIP2003    -0.4105
 25370 H1         -30.6440    -6.0890   -30.4730 H      2153  TIP2003     0.2052
 25371 H2         -31.6480    -7.0360   -31.0960 H      2153  TIP2003     0.2052
 25372 OH2         -7.1580   -18.8910    36.0300 O.3    2154  TIP2004    -0.4105
 25373 H1          -6.2690   -19.2450    36.0560 H      2154  TIP2004     0.2052
 25374 H2          -7.5630   -19.3120    35.2720 H      2154  TIP2004     0.2052
 25375 OH2         26.0430   -11.4220   -44.1280 O.3    2155  TIP2005    -0.4105
 25376 H1          26.4080   -11.7920   -43.3240 H      2155  TIP2005     0.2052
 25377 H2          25.8060   -10.5250   -43.8930 H      2155  TIP2005     0.2052
 25378 OH2        -29.7310    18.1600   -35.8220 O.3    2156  TIP2006    -0.4105
 25379 H1         -29.7890    17.2570   -35.5090 H      2156  TIP2006     0.2052
 25380 H2         -30.4250    18.2310   -36.4780 H      2156  TIP2006     0.2052
 25381 OH2         26.3500    12.0620    31.3660 O.3    2157  TIP2007    -0.4105
 25382 H1          26.3440    11.5100    32.1470 H      2157  TIP2007     0.2052
 25383 H2          27.2650    12.0680    31.0830 H      2157  TIP2007     0.2052
 25384 OH2         16.6090    32.9480    38.0370 O.3    2158  TIP2008    -0.4105
 25385 H1          16.0420    33.5290    37.5310 H      2158  TIP2008     0.2052
 25386 H2          17.4980    33.2130    37.8000 H      2158  TIP2008     0.2052
 25387 OH2         19.9840   -24.0050    26.5240 O.3    2159  TIP2009    -0.4105
 25388 H1          19.5330   -24.7850    26.2000 H      2159  TIP2009     0.2052
 25389 H2          20.6120   -23.7870    25.8350 H      2159  TIP2009     0.2052
 25390 OH2        -14.1500   -10.9800    26.5900 O.3    2160  TIP2010    -0.4105
 25391 H1         -13.2110   -11.1550    26.5200 H      2160  TIP2010     0.2052
 25392 H2         -14.4490   -10.9060    25.6840 H      2160  TIP2010     0.2052
 25393 OH2        -27.3650   -20.6250    40.4730 O.3    2161  TIP2011    -0.4105
 25394 H1         -28.1100   -20.5490    39.8760 H      2161  TIP2011     0.2052
 25395 H2         -26.6440   -20.1950    40.0130 H      2161  TIP2011     0.2052
 25396 OH2         -9.9330   -32.3990   -41.3520 O.3    2162  TIP2012    -0.4105
 25397 H1          -9.1320   -31.8850   -41.4600 H      2162  TIP2012     0.2052
 25398 H2         -10.6380   -31.8000   -41.5990 H      2162  TIP2012     0.2052
 25399 OH2        -28.4300   -25.3150    54.4360 O.3    2163  TIP2013    -0.4105
 25400 H1         -28.5500   -25.8060    55.2490 H      2163  TIP2013     0.2052
 25401 H2         -28.7630   -24.4390    54.6330 H      2163  TIP2013     0.2052
 25402 OH2         14.4110    25.3710    28.1970 O.3    2164  TIP2014    -0.4105
 25403 H1          13.9490    25.2530    27.3670 H      2164  TIP2014     0.2052
 25404 H2          14.3950    26.3160    28.3480 H      2164  TIP2014     0.2052
 25405 OH2        -20.7140   -26.5260   -18.8210 O.3    2165  TIP2015    -0.4105
 25406 H1         -21.0260   -26.3370   -19.7060 H      2165  TIP2015     0.2052
 25407 H2         -21.4970   -26.8060   -18.3460 H      2165  TIP2015     0.2052
 25408 OH2         -7.8080     7.3410    48.2190 O.3    2166  TIP2016    -0.4105
 25409 H1          -7.4400     6.7460    48.8720 H      2166  TIP2016     0.2052
 25410 H2          -8.6900     7.0060    48.0580 H      2166  TIP2016     0.2052
 25411 OH2        -17.9930   -29.0860   -44.5430 O.3    2167  TIP2017    -0.4105
 25412 H1         -17.6510   -29.7860   -45.1000 H      2167  TIP2017     0.2052
 25413 H2         -18.3420   -29.5390   -43.7760 H      2167  TIP2017     0.2052
 25414 OH2        -23.0610   -22.3310    31.8050 O.3    2168  TIP2018    -0.4105
 25415 H1         -22.4610   -22.5140    32.5290 H      2168  TIP2018     0.2052
 25416 H2         -22.9840   -21.3880    31.6620 H      2168  TIP2018     0.2052
 25417 OH2        -10.1390   -23.7690    39.5110 O.3    2169  TIP2019    -0.4105
 25418 H1          -9.4890   -23.1540    39.8500 H      2169  TIP2019     0.2052
 25419 H2         -10.9810   -23.3430    39.6710 H      2169  TIP2019     0.2052
 25420 OH2          5.4670     3.3480   -17.0550 O.3    2170  TIP2020    -0.4105
 25421 H1           4.9190     3.6850   -17.7640 H      2170  TIP2020     0.2052
 25422 H2           5.4750     4.0490   -16.4040 H      2170  TIP2020     0.2052
 25423 OH2        -14.1990    -9.0460   -17.4660 O.3    2171  TIP2021    -0.4105
 25424 H1         -14.6260    -8.2100   -17.2780 H      2171  TIP2021     0.2052
 25425 H2         -14.5360    -9.3000   -18.3250 H      2171  TIP2021     0.2052
 25426 OH2        -13.0560    29.7480   -25.6530 O.3    2172  TIP2022    -0.4105
 25427 H1         -13.7710    30.3800   -25.5790 H      2172  TIP2022     0.2052
 25428 H2         -13.3190    29.0200   -25.0900 H      2172  TIP2022     0.2052
 25429 OH2        -23.8010   -18.1760   -30.6000 O.3    2173  TIP2023    -0.4105
 25430 H1         -24.4210   -17.4680   -30.7720 H      2173  TIP2023     0.2052
 25431 H2         -24.2330   -18.7190   -29.9410 H      2173  TIP2023     0.2052
 25432 OH2          8.0840   -28.7220    45.3220 O.3    2174  TIP2024    -0.4105
 25433 H1           7.5930   -29.5400    45.2500 H      2174  TIP2024     0.2052
 25434 H2           7.8960   -28.2570    44.5070 H      2174  TIP2024     0.2052
 25435 OH2        -31.1710   -26.7750    32.0570 O.3    2175  TIP2025    -0.4105
 25436 H1         -32.1180   -26.8510    31.9420 H      2175  TIP2025     0.2052
 25437 H2         -30.8620   -26.3720    31.2450 H      2175  TIP2025     0.2052
 25438 OH2         -0.2960   -18.6190    54.0260 O.3    2176  TIP2026    -0.4105
 25439 H1          -0.9160   -17.8950    54.1140 H      2176  TIP2026     0.2052
 25440 H2           0.2940   -18.5220    54.7740 H      2176  TIP2026     0.2052
 25441 OH2        -29.5370    -1.3640    36.9580 O.3    2177  TIP2027    -0.4105
 25442 H1         -29.4160    -2.2890    37.1740 H      2177  TIP2027     0.2052
 25443 H2         -30.1790    -1.0510    37.5960 H      2177  TIP2027     0.2052
 25444 OH2          0.0330    23.3070    48.2510 O.3    2178  TIP2028    -0.4105
 25445 H1           0.9770    23.4290    48.1550 H      2178  TIP2028     0.2052
 25446 H2          -0.1070    22.3740    48.0860 H      2178  TIP2028     0.2052
 25447 OH2         -4.4100    31.1430    21.7410 O.3    2179  TIP2029    -0.4105
 25448 H1          -3.5910    31.1400    21.2460 H      2179  TIP2029     0.2052
 25449 H2          -4.1450    30.9740    22.6450 H      2179  TIP2029     0.2052
 25450 OH2         15.0790     1.4540   -17.2280 O.3    2180  TIP2030    -0.4105
 25451 H1          15.0840     2.4060   -17.3270 H      2180  TIP2030     0.2052
 25452 H2          14.3660     1.2800   -16.6130 H      2180  TIP2030     0.2052
 25453 OH2         32.3060    31.3200    22.6130 O.3    2181  TIP2031    -0.4105
 25454 H1          31.5570    31.5930    23.1430 H      2181  TIP2031     0.2052
 25455 H2          32.2330    31.8380    21.8110 H      2181  TIP2031     0.2052
 25456 OH2         24.6030   -13.5690    43.9600 O.3    2182  TIP2032    -0.4105
 25457 H1          24.4460   -12.6560    44.2010 H      2182  TIP2032     0.2052
 25458 H2          25.5490   -13.6820    44.0530 H      2182  TIP2032     0.2052
 25459 OH2        -16.5040    15.7330    49.7300 O.3    2183  TIP2033    -0.4105
 25460 H1         -16.8990    15.1040    50.3340 H      2183  TIP2033     0.2052
 25461 H2         -17.0860    16.4920    49.7600 H      2183  TIP2033     0.2052
 25462 OH2         -1.1900    -1.0420    28.2940 O.3    2184  TIP2034    -0.4105
 25463 H1          -1.7580    -0.6590    28.9630 H      2184  TIP2034     0.2052
 25464 H2          -1.6260    -0.8420    27.4660 H      2184  TIP2034     0.2052
 25465 OH2         17.3370    -1.1420   -39.4230 O.3    2185  TIP2035    -0.4105
 25466 H1          18.1510    -0.6410   -39.4590 H      2185  TIP2035     0.2052
 25467 H2          17.6010    -2.0440   -39.6050 H      2185  TIP2035     0.2052
 25468 OH2         22.7880    29.2060    53.6810 O.3    2186  TIP2036    -0.4105
 25469 H1          23.2330    28.5260    53.1740 H      2186  TIP2036     0.2052
 25470 H2          22.7670    29.9650    53.0980 H      2186  TIP2036     0.2052
 25471 OH2         17.3940    -1.4010    52.9620 O.3    2187  TIP2037    -0.4105
 25472 H1          18.2030    -1.5240    52.4660 H      2187  TIP2037     0.2052
 25473 H2          16.7600    -1.9750    52.5320 H      2187  TIP2037     0.2052
 25474 OH2        -30.1220     8.2960    38.4450 O.3    2188  TIP2038    -0.4105
 25475 H1         -30.2790     9.0360    39.0310 H      2188  TIP2038     0.2052
 25476 H2         -29.1720     8.2820    38.3260 H      2188  TIP2038     0.2052
 25477 OH2         20.8490    18.9730    40.0170 O.3    2189  TIP2039    -0.4105
 25478 H1          20.6870    18.7760    39.0940 H      2189  TIP2039     0.2052
 25479 H2          20.4330    18.2540    40.4920 H      2189  TIP2039     0.2052
 25480 OH2        -31.1670    10.5900   -25.5800 O.3    2190  TIP2040    -0.4105
 25481 H1         -31.9800    10.8750   -25.9970 H      2190  TIP2040     0.2052
 25482 H2         -30.8230    11.3790   -25.1610 H      2190  TIP2040     0.2052
 25483 OH2          5.3300     8.8330   -29.5980 O.3    2191  TIP2041    -0.4105
 25484 H1           5.0120     9.2560   -28.8010 H      2191  TIP2041     0.2052
 25485 H2           4.8590     9.2710   -30.3070 H      2191  TIP2041     0.2052
 25486 OH2          3.6550    13.5400    24.6420 O.3    2192  TIP2042    -0.4105
 25487 H1           4.0710    13.7900    23.8180 H      2192  TIP2042     0.2052
 25488 H2           3.2770    12.6780    24.4690 H      2192  TIP2042     0.2052
 25489 OH2         17.9610    24.0800    40.9430 O.3    2193  TIP2043    -0.4105
 25490 H1          17.1940    24.5580    41.2590 H      2193  TIP2043     0.2052
 25491 H2          18.6020    24.1610    41.6500 H      2193  TIP2043     0.2052
 25492 OH2         16.0290    22.9540    33.0420 O.3    2194  TIP2044    -0.4105
 25493 H1          15.2410    23.4650    32.8590 H      2194  TIP2044     0.2052
 25494 H2          16.4820    22.9020    32.2010 H      2194  TIP2044     0.2052
 25495 OH2        -21.0930   -23.2120   -37.7080 O.3    2195  TIP2045    -0.4105
 25496 H1         -21.3580   -22.4190   -38.1730 H      2195  TIP2045     0.2052
 25497 H2         -20.8730   -23.8340   -38.4020 H      2195  TIP2045     0.2052
 25498 OH2        -24.6610    17.0230   -53.8800 O.3    2196  TIP2046    -0.4105
 25499 H1         -25.0450    16.9070   -54.7490 H      2196  TIP2046     0.2052
 25500 H2         -25.1530    17.7480   -53.4950 H      2196  TIP2046     0.2052
 25501 OH2         18.1410    -6.5770   -13.2380 O.3    2197  TIP2047    -0.4105
 25502 H1          17.3070    -6.9030   -13.5770 H      2197  TIP2047     0.2052
 25503 H2          18.1810    -5.6670   -13.5330 H      2197  TIP2047     0.2052
 25504 OH2         32.9710   -19.6380    31.8780 O.3    2198  TIP2048    -0.4105
 25505 H1          32.9070   -20.5770    32.0480 H      2198  TIP2048     0.2052
 25506 H2          33.7830   -19.3710    32.3090 H      2198  TIP2048     0.2052
 25507 OH2         -5.1730    20.1170   -22.6500 O.3    2199  TIP2049    -0.4105
 25508 H1          -5.5130    20.3820   -23.5040 H      2199  TIP2049     0.2052
 25509 H2          -5.9370    20.1240   -22.0740 H      2199  TIP2049     0.2052
 25510 OH2        -10.1110     8.0020   -38.1110 O.3    2200  TIP2050    -0.4105
 25511 H1         -10.3550     7.6700   -37.2470 H      2200  TIP2050     0.2052
 25512 H2         -10.7130     7.5660   -38.7140 H      2200  TIP2050     0.2052
 25513 OH2        -10.1850    -6.5700   -27.5380 O.3    2201  TIP2051    -0.4105
 25514 H1         -10.7450    -6.4510   -26.7710 H      2201  TIP2051     0.2052
 25515 H2         -10.5350    -7.3470   -27.9730 H      2201  TIP2051     0.2052
 25516 OH2         23.1460   -17.6980   -40.4920 O.3    2202  TIP2052    -0.4105
 25517 H1          22.8620   -18.5090   -40.9120 H      2202  TIP2052     0.2052
 25518 H2          23.1180   -17.8900   -39.5550 H      2202  TIP2052     0.2052
 25519 OH2         26.8450   -21.9550   -23.1780 O.3    2203  TIP2053    -0.4105
 25520 H1          27.0110   -22.1560   -24.0990 H      2203  TIP2053     0.2052
 25521 H2          27.7110   -21.9570   -22.7710 H      2203  TIP2053     0.2052
 25522 OH2         22.4710    -9.0180    35.2470 O.3    2204  TIP2054    -0.4105
 25523 H1          22.0410    -8.1690    35.3510 H      2204  TIP2054     0.2052
 25524 H2          22.1950    -9.5220    36.0130 H      2204  TIP2054     0.2052
 25525 OH2        -18.0000    21.5020   -53.3140 O.3    2205  TIP2055    -0.4105
 25526 H1         -18.7240    21.1740   -53.8490 H      2205  TIP2055     0.2052
 25527 H2         -18.2700    22.3840   -53.0600 H      2205  TIP2055     0.2052
 25528 OH2         26.5840    12.9870    39.4670 O.3    2206  TIP2056    -0.4105
 25529 H1          27.1370    12.7780    40.2210 H      2206  TIP2056     0.2052
 25530 H2          26.4570    12.1480    39.0240 H      2206  TIP2056     0.2052
 25531 OH2         29.5140    -5.2720   -14.4570 O.3    2207  TIP2057    -0.4105
 25532 H1          29.4330    -6.2240   -14.5110 H      2207  TIP2057     0.2052
 25533 H2          29.1300    -5.0460   -13.6090 H      2207  TIP2057     0.2052
 25534 OH2          7.2780    14.5760    20.9470 O.3    2208  TIP2058    -0.4105
 25535 H1           6.6740    14.6800    20.2120 H      2208  TIP2058     0.2052
 25536 H2           7.8960    13.9060    20.6570 H      2208  TIP2058     0.2052
 25537 OH2         -5.8380    -0.5200    52.0310 O.3    2209  TIP2059    -0.4105
 25538 H1          -6.6910    -0.9470    52.1100 H      2209  TIP2059     0.2052
 25539 H2          -5.9770     0.1770    51.3890 H      2209  TIP2059     0.2052
 25540 OH2        -25.1500   -29.7630    47.7080 O.3    2210  TIP2060    -0.4105
 25541 H1         -25.7640   -29.9330    48.4220 H      2210  TIP2060     0.2052
 25542 H2         -25.6930   -29.7640    46.9200 H      2210  TIP2060     0.2052
 25543 OH2        -11.1810   -23.0720    29.2120 O.3    2211  TIP2061    -0.4105
 25544 H1         -10.3580   -23.5480    29.0970 H      2211  TIP2061     0.2052
 25545 H2         -11.0030   -22.4510    29.9180 H      2211  TIP2061     0.2052
 25546 OH2          7.1300    -3.8590   -39.3010 O.3    2212  TIP2062    -0.4105
 25547 H1           7.2250    -4.8090   -39.2280 H      2212  TIP2062     0.2052
 25548 H2           6.5810    -3.7320   -40.0750 H      2212  TIP2062     0.2052
 25549 OH2        -31.3820    19.3080    24.9890 O.3    2213  TIP2063    -0.4105
 25550 H1         -31.5900    19.9610    25.6570 H      2213  TIP2063     0.2052
 25551 H2         -32.2300    18.9380    24.7420 H      2213  TIP2063     0.2052
 25552 OH2        -10.9650     4.4590   -48.2150 O.3    2214  TIP2064    -0.4105
 25553 H1         -11.5050     5.0580   -48.7300 H      2214  TIP2064     0.2052
 25554 H2         -11.4220     3.6200   -48.2670 H      2214  TIP2064     0.2052
 25555 OH2          5.7450    -8.2850    25.6700 O.3    2215  TIP2065    -0.4105
 25556 H1           4.8100    -8.1700    25.4990 H      2215  TIP2065     0.2052
 25557 H2           6.1430    -7.4580    25.3970 H      2215  TIP2065     0.2052
 25558 OH2          0.2170    26.9700    49.3230 O.3    2216  TIP2066    -0.4105
 25559 H1           1.1370    26.8330    49.0990 H      2216  TIP2066     0.2052
 25560 H2          -0.2670    26.5730    48.5990 H      2216  TIP2066     0.2052
 25561 OH2          2.1630    -4.9540    21.0320 O.3    2217  TIP2067    -0.4105
 25562 H1           1.9910    -5.7410    21.5500 H      2217  TIP2067     0.2052
 25563 H2           1.2980    -4.5740    20.8790 H      2217  TIP2067     0.2052
 25564 OH2        -21.7110   -23.3420    37.1180 O.3    2218  TIP2068    -0.4105
 25565 H1         -22.4310   -22.7150    37.1750 H      2218  TIP2068     0.2052
 25566 H2         -22.0620   -24.0660    36.6000 H      2218  TIP2068     0.2052
 25567 OH2         -0.4630    -7.4360   -36.0390 O.3    2219  TIP2069    -0.4105
 25568 H1          -0.8030    -6.5420   -36.0250 H      2219  TIP2069     0.2052
 25569 H2          -0.6770    -7.7610   -36.9130 H      2219  TIP2069     0.2052
 25570 OH2         19.3640     1.2730    50.2700 O.3    2220  TIP2070    -0.4105
 25571 H1          18.4890     0.9450    50.0630 H      2220  TIP2070     0.2052
 25572 H2          19.2090     2.1150    50.6990 H      2220  TIP2070     0.2052
 25573 OH2        -18.1630   -17.6280    51.7770 O.3    2221  TIP2071    -0.4105
 25574 H1         -18.2630   -17.7330    52.7230 H      2221  TIP2071     0.2052
 25575 H2         -18.9170   -18.0830    51.4040 H      2221  TIP2071     0.2052
 25576 OH2         18.9830    -8.5840    38.1250 O.3    2222  TIP2072    -0.4105
 25577 H1          18.8550    -7.7830    38.6330 H      2222  TIP2072     0.2052
 25578 H2          18.7520    -9.2900    38.7280 H      2222  TIP2072     0.2052
 25579 OH2          5.5300    27.0940    51.3750 O.3    2223  TIP2073    -0.4105
 25580 H1           6.3220    27.3600    50.9080 H      2223  TIP2073     0.2052
 25581 H2           5.5130    26.1410    51.2950 H      2223  TIP2073     0.2052
 25582 OH2        -17.3960    32.6580    45.8470 O.3    2224  TIP2074    -0.4105
 25583 H1         -17.4470    33.2840    46.5690 H      2224  TIP2074     0.2052
 25584 H2         -17.9170    31.9100    46.1400 H      2224  TIP2074     0.2052
 25585 OH2         11.0910    26.3940    29.5590 O.3    2225  TIP2075    -0.4105
 25586 H1          11.7240    26.9670    29.9900 H      2225  TIP2075     0.2052
 25587 H2          11.1550    26.6200    28.6310 H      2225  TIP2075     0.2052
 25588 OH2         -1.5830    28.6530    38.6300 O.3    2226  TIP2076    -0.4105
 25589 H1          -2.2910    29.2700    38.4440 H      2226  TIP2076     0.2052
 25590 H2          -1.9760    28.0060    39.2160 H      2226  TIP2076     0.2052
 25591 OH2          1.2190     4.7210    -5.9810 O.3    2227  TIP2077    -0.4105
 25592 H1           2.0510     5.1680    -5.8230 H      2227  TIP2077     0.2052
 25593 H2           0.5770     5.4280    -6.0530 H      2227  TIP2077     0.2052
 25594 OH2         -0.5440    18.6580   -50.5020 O.3    2228  TIP2078    -0.4105
 25595 H1          -1.4430    18.3340   -50.5500 H      2228  TIP2078     0.2052
 25596 H2          -0.6350    19.5920   -50.3160 H      2228  TIP2078     0.2052
 25597 OH2        -11.2260    24.1840   -27.9740 O.3    2229  TIP2079    -0.4105
 25598 H1         -10.4880    23.7560   -28.4100 H      2229  TIP2079     0.2052
 25599 H2         -11.2100    23.8380   -27.0820 H      2229  TIP2079     0.2052
 25600 OH2         -8.4870    30.2270   -39.4730 O.3    2230  TIP2080    -0.4105
 25601 H1          -9.2180    30.7740   -39.1860 H      2230  TIP2080     0.2052
 25602 H2          -8.4260    30.3820   -40.4160 H      2230  TIP2080     0.2052
 25603 OH2         24.6620    24.8090   -52.2310 O.3    2231  TIP2081    -0.4105
 25604 H1          24.4690    24.6250   -53.1510 H      2231  TIP2081     0.2052
 25605 H2          24.9880    25.7090   -52.2300 H      2231  TIP2081     0.2052
 25606 OH2         12.6460    11.6500    29.0400 O.3    2232  TIP2082    -0.4105
 25607 H1          11.8960    12.1700    29.3280 H      2232  TIP2082     0.2052
 25608 H2          12.5450    10.8120    29.4920 H      2232  TIP2082     0.2052
 25609 OH2        -18.0820    13.3270   -23.6460 O.3    2233  TIP2083    -0.4105
 25610 H1         -17.2940    12.7870   -23.5790 H      2233  TIP2083     0.2052
 25611 H2         -18.0460    13.9000   -22.8810 H      2233  TIP2083     0.2052
 25612 OH2         -5.9710    23.0940   -47.8020 O.3    2234  TIP2084    -0.4105
 25613 H1          -6.8810    22.9710   -48.0700 H      2234  TIP2084     0.2052
 25614 H2          -6.0190    23.2790   -46.8650 H      2234  TIP2084     0.2052
 25615 OH2         22.1610   -29.3110    45.8580 O.3    2235  TIP2085    -0.4105
 25616 H1          22.9940   -28.8870    46.0630 H      2235  TIP2085     0.2052
 25617 H2          21.6890   -29.3260    46.6910 H      2235  TIP2085     0.2052
 25618 OH2        -11.9610   -14.6120    31.8750 O.3    2236  TIP2086    -0.4105
 25619 H1         -12.4720   -14.1490    31.2110 H      2236  TIP2086     0.2052
 25620 H2         -12.6090   -14.8980    32.5200 H      2236  TIP2086     0.2052
 25621 OH2        -26.7980    -0.9440    52.8370 O.3    2237  TIP2087    -0.4105
 25622 H1         -25.9970    -1.2050    53.2920 H      2237  TIP2087     0.2052
 25623 H2         -26.5140    -0.7550    51.9420 H      2237  TIP2087     0.2052
 25624 OH2         -5.4160   -28.7890   -54.5810 O.3    2238  TIP2088    -0.4105
 25625 H1          -4.7660   -29.4120   -54.2560 H      2238  TIP2088     0.2052
 25626 H2          -6.0640   -29.3300   -55.0320 H      2238  TIP2088     0.2052
 25627 OH2        -25.5240   -22.1900    29.7700 O.3    2239  TIP2089    -0.4105
 25628 H1         -24.8290   -22.2770    29.1180 H      2239  TIP2089     0.2052
 25629 H2         -25.0640   -22.1560    30.6090 H      2239  TIP2089     0.2052
 25630 OH2         28.7440    23.5010    25.6750 O.3    2240  TIP2090    -0.4105
 25631 H1          29.5680    23.0790    25.9180 H      2240  TIP2090     0.2052
 25632 H2          28.9470    23.9780    24.8700 H      2240  TIP2090     0.2052
 25633 OH2         19.9690     8.9370   -38.3440 O.3    2241  TIP2091    -0.4105
 25634 H1          20.6020     8.2800   -38.0540 H      2241  TIP2091     0.2052
 25635 H2          20.1560     9.7050   -37.8040 H      2241  TIP2091     0.2052
 25636 OH2         24.9280    23.4220   -34.9220 O.3    2242  TIP2092    -0.4105
 25637 H1          25.1720    24.0570   -35.5950 H      2242  TIP2092     0.2052
 25638 H2          23.9770    23.3430   -34.9980 H      2242  TIP2092     0.2052
 25639 OH2        -22.4360    30.2390    20.4160 O.3    2243  TIP2093    -0.4105
 25640 H1         -22.2230    31.0320    19.9240 H      2243  TIP2093     0.2052
 25641 H2         -22.7980    29.6400    19.7620 H      2243  TIP2093     0.2052
 25642 OH2        -10.2550   -18.3550    40.6250 O.3    2244  TIP2094    -0.4105
 25643 H1          -9.6050   -18.0030    41.2320 H      2244  TIP2094     0.2052
 25644 H2          -9.8830   -18.2000    39.7570 H      2244  TIP2094     0.2052
 25645 OH2          2.6160     2.1490   -28.1090 O.3    2245  TIP2095    -0.4105
 25646 H1           1.9390     1.8230   -28.7030 H      2245  TIP2095     0.2052
 25647 H2           3.1310     2.7550   -28.6410 H      2245  TIP2095     0.2052
 25648 OH2         31.2990   -22.6280   -40.4270 O.3    2246  TIP2096    -0.4105
 25649 H1          30.8450   -23.4680   -40.3690 H      2246  TIP2096     0.2052
 25650 H2          30.6000   -21.9840   -40.5400 H      2246  TIP2096     0.2052
 25651 OH2         -6.8560   -26.0190    19.5440 O.3    2247  TIP2097    -0.4105
 25652 H1          -7.3900   -25.7750    18.7880 H      2247  TIP2097     0.2052
 25653 H2          -5.9550   -25.9910    19.2210 H      2247  TIP2097     0.2052
 25654 OH2         12.1800    -5.8160    55.3780 O.3    2248  TIP2098    -0.4105
 25655 H1          12.5620    -4.9750    55.1240 H      2248  TIP2098     0.2052
 25656 H2          11.8860    -6.2040    54.5550 H      2248  TIP2098     0.2052
 25657 OH2         25.2440     8.0910   -36.8320 O.3    2249  TIP2099    -0.4105
 25658 H1          25.9350     8.4890   -36.3010 H      2249  TIP2099     0.2052
 25659 H2          25.4190     8.3980   -37.7210 H      2249  TIP2099     0.2052
 25660 OH2         -9.1540     7.3670    44.8730 O.3    2250  TIP2100    -0.4105
 25661 H1          -8.3950     7.2600    44.2980 H      2250  TIP2100     0.2052
 25662 H2          -9.3070     6.4930    45.2330 H      2250  TIP2100     0.2052
 25663 OH2         23.6820    -6.7530   -32.2250 O.3    2251  TIP2101    -0.4105
 25664 H1          22.9190    -6.6120   -31.6640 H      2251  TIP2101     0.2052
 25665 H2          23.7440    -5.9560   -32.7510 H      2251  TIP2101     0.2052
 25666 OH2        -26.6730    23.2090    49.9790 O.3    2252  TIP2102    -0.4105
 25667 H1         -26.6040    23.0790    50.9250 H      2252  TIP2102     0.2052
 25668 H2         -26.0690    22.5680    49.6050 H      2252  TIP2102     0.2052
 25669 OH2        -31.3470    21.5430    26.7670 O.3    2253  TIP2103    -0.4105
 25670 H1         -31.1240    22.0060    25.9590 H      2253  TIP2103     0.2052
 25671 H2         -32.1540    21.9610    27.0680 H      2253  TIP2103     0.2052
 25672 OH2        -16.3940   -25.2580   -25.4240 O.3    2254  TIP2104    -0.4105
 25673 H1         -15.7710   -24.9340   -26.0750 H      2254  TIP2104     0.2052
 25674 H2         -17.2420   -24.9250   -25.7160 H      2254  TIP2104     0.2052
 25675 OH2        -13.2370   -32.4290    32.8540 O.3    2255  TIP2105    -0.4105
 25676 H1         -13.6320   -32.8550    33.6150 H      2255  TIP2105     0.2052
 25677 H2         -13.0130   -33.1500    32.2650 H      2255  TIP2105     0.2052
 25678 OH2          5.5690   -24.8210    35.7340 O.3    2256  TIP2106    -0.4105
 25679 H1           6.3710   -24.3220    35.5750 H      2256  TIP2106     0.2052
 25680 H2           5.3200   -25.1540    34.8720 H      2256  TIP2106     0.2052
 25681 OH2         21.6440   -27.2010   -32.2050 O.3    2257  TIP2107    -0.4105
 25682 H1          21.1670   -27.0460   -31.3900 H      2257  TIP2107     0.2052
 25683 H2          21.2360   -26.6080   -32.8370 H      2257  TIP2107     0.2052
 25684 OH2         -1.8190   -13.3150    53.4880 O.3    2258  TIP2108    -0.4105
 25685 H1          -1.7150   -13.7340    52.6330 H      2258  TIP2108     0.2052
 25686 H2          -0.9490   -12.9740    53.6950 H      2258  TIP2108     0.2052
 25687 OH2         -4.6790    19.2710    36.6900 O.3    2259  TIP2109    -0.4105
 25688 H1          -4.0850    19.6110    36.0210 H      2259  TIP2109     0.2052
 25689 H2          -4.8960    20.0330    37.2270 H      2259  TIP2109     0.2052
 25690 OH2          9.9810    -9.5450   -35.6440 O.3    2260  TIP2110    -0.4105
 25691 H1          10.4050    -8.7400   -35.3460 H      2260  TIP2110     0.2052
 25692 H2           9.0660    -9.4470   -35.3790 H      2260  TIP2110     0.2052
 25693 OH2         10.2930   -15.3000   -37.3740 O.3    2261  TIP2111    -0.4105
 25694 H1          10.1680   -15.3640   -36.4270 H      2261  TIP2111     0.2052
 25695 H2           9.8220   -16.0530   -37.7300 H      2261  TIP2111     0.2052
 25696 OH2        -15.2260     5.0180   -55.4370 O.3    2262  TIP2112    -0.4105
 25697 H1         -15.7430     4.2240   -55.5730 H      2262  TIP2112     0.2052
 25698 H2         -15.8080     5.7310   -55.7000 H      2262  TIP2112     0.2052
 25699 OH2        -18.0440    26.4810    47.1570 O.3    2263  TIP2113    -0.4105
 25700 H1         -18.1400    26.4030    46.2080 H      2263  TIP2113     0.2052
 25701 H2         -18.9270    26.6670    47.4740 H      2263  TIP2113     0.2052
 25702 OH2        -10.2610   -21.4060   -38.3310 O.3    2264  TIP2114    -0.4105
 25703 H1         -10.9870   -20.7970   -38.4620 H      2264  TIP2114     0.2052
 25704 H2          -9.5800   -21.1020   -38.9310 H      2264  TIP2114     0.2052
 25705 OH2         31.6570   -32.2200    38.8240 O.3    2265  TIP2115    -0.4105
 25706 H1          32.1270   -31.3920    38.7210 H      2265  TIP2115     0.2052
 25707 H2          31.0200   -32.0490    39.5190 H      2265  TIP2115     0.2052
 25708 OH2         14.2210   -13.3410   -47.5510 O.3    2266  TIP2116    -0.4105
 25709 H1          14.7910   -13.8730   -46.9950 H      2266  TIP2116     0.2052
 25710 H2          14.6140   -13.4000   -48.4220 H      2266  TIP2116     0.2052
 25711 OH2          2.2250     2.8260    42.1890 O.3    2267  TIP2117    -0.4105
 25712 H1           1.7320     2.0070    42.1360 H      2267  TIP2117     0.2052
 25713 H2           2.2810     3.1320    41.2840 H      2267  TIP2117     0.2052
 25714 OH2        -10.1850   -13.1930   -48.7760 O.3    2268  TIP2118    -0.4105
 25715 H1         -10.4750   -13.7470   -49.5010 H      2268  TIP2118     0.2052
 25716 H2         -10.0940   -12.3220   -49.1610 H      2268  TIP2118     0.2052
 25717 OH2        -13.4250    26.4200    52.8130 O.3    2269  TIP2119    -0.4105
 25718 H1         -13.9720    26.0630    53.5130 H      2269  TIP2119     0.2052
 25719 H2         -12.9660    27.1560    53.2170 H      2269  TIP2119     0.2052
 25720 OH2         10.1010   -16.6930   -51.6870 O.3    2270  TIP2120    -0.4105
 25721 H1          10.9850   -16.8000   -51.3360 H      2270  TIP2120     0.2052
 25722 H2          10.0730   -15.7880   -51.9960 H      2270  TIP2120     0.2052
 25723 OH2         31.4300    31.6070   -46.5760 O.3    2271  TIP2121    -0.4105
 25724 H1          31.5140    32.5600   -46.5880 H      2271  TIP2121     0.2052
 25725 H2          32.0680    31.3010   -47.2210 H      2271  TIP2121     0.2052
 25726 OH2        -26.8550   -17.8170   -20.5080 O.3    2272  TIP2122    -0.4105
 25727 H1         -27.4190   -17.6300   -19.7570 H      2272  TIP2122     0.2052
 25728 H2         -26.5270   -16.9610   -20.7810 H      2272  TIP2122     0.2052
 25729 OH2        -30.8310   -26.4040    34.6310 O.3    2273  TIP2123    -0.4105
 25730 H1         -31.5110   -25.7550    34.8120 H      2273  TIP2123     0.2052
 25731 H2         -30.9720   -26.6500    33.7160 H      2273  TIP2123     0.2052
 25732 OH2        -30.1290   -12.4520   -46.9420 O.3    2274  TIP2124    -0.4105
 25733 H1         -30.1700   -12.9580   -46.1310 H      2274  TIP2124     0.2052
 25734 H2         -30.7710   -12.8670   -47.5170 H      2274  TIP2124     0.2052
 25735 OH2         -3.8610   -25.2890    37.6790 O.3    2275  TIP2125    -0.4105
 25736 H1          -3.9710   -26.0100    38.2990 H      2275  TIP2125     0.2052
 25737 H2          -4.5130   -25.4560    36.9990 H      2275  TIP2125     0.2052
 25738 OH2         12.8980   -20.1430    29.0640 O.3    2276  TIP2126    -0.4105
 25739 H1          12.8260   -21.0960    29.1190 H      2276  TIP2126     0.2052
 25740 H2          12.0070   -19.8260    29.2150 H      2276  TIP2126     0.2052
 25741 OH2        -15.4760     0.2380    42.6000 O.3    2277  TIP2127    -0.4105
 25742 H1         -15.1580     1.0160    42.1420 H      2277  TIP2127     0.2052
 25743 H2         -16.4230     0.2490    42.4620 H      2277  TIP2127     0.2052
 25744 OH2        -14.1770   -27.7880    50.2140 O.3    2278  TIP2128    -0.4105
 25745 H1         -13.2290   -27.6750    50.2900 H      2278  TIP2128     0.2052
 25746 H2         -14.5390   -26.9300    50.4350 H      2278  TIP2128     0.2052
 25747 OH2         -9.5440   -16.8980   -48.6100 O.3    2279  TIP2129    -0.4105
 25748 H1          -9.4390   -16.1300   -49.1710 H      2279  TIP2129     0.2052
 25749 H2         -10.3170   -17.3440   -48.9560 H      2279  TIP2129     0.2052
 25750 OH2         19.6760    15.7650   -53.9690 O.3    2280  TIP2130    -0.4105
 25751 H1          20.3240    15.1360   -53.6520 H      2280  TIP2130     0.2052
 25752 H2          20.0000    16.0280   -54.8310 H      2280  TIP2130     0.2052
 25753 OH2        -18.0530     3.5310    24.2190 O.3    2281  TIP2131    -0.4105
 25754 H1         -17.8930     3.3850    23.2870 H      2281  TIP2131     0.2052
 25755 H2         -17.3270     3.0900    24.6590 H      2281  TIP2131     0.2052
 25756 OH2         12.0420    -6.7190   -45.3020 O.3    2282  TIP2132    -0.4105
 25757 H1          12.0570    -5.9960   -44.6740 H      2282  TIP2132     0.2052
 25758 H2          12.9230    -7.0910   -45.2610 H      2282  TIP2132     0.2052
 25759 OH2         -4.0050    -5.7720   -35.5440 O.3    2283  TIP2133    -0.4105
 25760 H1          -3.7670    -5.0880   -34.9190 H      2283  TIP2133     0.2052
 25761 H2          -3.5410    -5.5360   -36.3470 H      2283  TIP2133     0.2052
 25762 OH2         32.9930   -17.8730    29.5440 O.3    2284  TIP2134    -0.4105
 25763 H1          32.9560   -18.1310    30.4650 H      2284  TIP2134     0.2052
 25764 H2          33.5770   -18.5130    29.1380 H      2284  TIP2134     0.2052
 25765 OH2         22.4230   -27.6210    49.0010 O.3    2285  TIP2135    -0.4105
 25766 H1          22.0960   -28.4810    48.7350 H      2285  TIP2135     0.2052
 25767 H2          23.2980   -27.7950    49.3480 H      2285  TIP2135     0.2052
 25768 OH2        -17.3060    24.7200   -33.6230 O.3    2286  TIP2136    -0.4105
 25769 H1         -18.0020    24.9310   -34.2440 H      2286  TIP2136     0.2052
 25770 H2         -16.9470    25.5700   -33.3670 H      2286  TIP2136     0.2052
 25771 OH2         31.4360   -32.0600    47.1690 O.3    2287  TIP2137    -0.4105
 25772 H1          30.6200   -32.1770    46.6820 H      2287  TIP2137     0.2052
 25773 H2          32.1160   -32.0370    46.4960 H      2287  TIP2137     0.2052
 25774 OH2          2.3960   -13.6240    37.3350 O.3    2288  TIP2138    -0.4105
 25775 H1           2.4910   -13.3180    36.4320 H      2288  TIP2138     0.2052
 25776 H2           1.9330   -14.4580    37.2580 H      2288  TIP2138     0.2052
 25777 OH2         29.8810   -27.0740    35.7250 O.3    2289  TIP2139    -0.4105
 25778 H1          29.3750   -27.3290    36.4970 H      2289  TIP2139     0.2052
 25779 H2          30.7710   -26.9460    36.0530 H      2289  TIP2139     0.2052
 25780 OH2        -17.4610    -2.9680   -26.1130 O.3    2290  TIP2140    -0.4105
 25781 H1         -16.7760    -2.8250   -25.4590 H      2290  TIP2140     0.2052
 25782 H2         -17.1370    -2.5280   -26.8990 H      2290  TIP2140     0.2052
 25783 OH2        -22.3210    27.8210    43.0260 O.3    2291  TIP2141    -0.4105
 25784 H1         -22.1490    27.8810    42.0860 H      2291  TIP2141     0.2052
 25785 H2         -22.0750    26.9250    43.2580 H      2291  TIP2141     0.2052
 25786 OH2        -29.3700   -10.3460   -29.4220 O.3    2292  TIP2142    -0.4105
 25787 H1         -28.5960   -10.4340   -29.9780 H      2292  TIP2142     0.2052
 25788 H2         -29.8100    -9.5610   -29.7470 H      2292  TIP2142     0.2052
 25789 OH2        -17.7840    -4.5050   -51.5170 O.3    2293  TIP2143    -0.4105
 25790 H1         -17.0770    -4.8360   -52.0710 H      2293  TIP2143     0.2052
 25791 H2         -17.9950    -3.6470   -51.8850 H      2293  TIP2143     0.2052
 25792 OH2        -11.4080    21.3070    32.8080 O.3    2294  TIP2144    -0.4105
 25793 H1         -11.3360    20.3670    32.6370 H      2294  TIP2144     0.2052
 25794 H2         -10.5040    21.6000    32.9230 H      2294  TIP2144     0.2052
 25795 OH2         32.6480   -14.7850    13.8820 O.3    2295  TIP2145    -0.4105
 25796 H1          32.0040   -15.1400    14.4940 H      2295  TIP2145     0.2052
 25797 H2          32.1390   -14.2230    13.2970 H      2295  TIP2145     0.2052
 25798 OH2         28.5760    19.2900   -33.6690 O.3    2296  TIP2146    -0.4105
 25799 H1          28.4950    20.2430   -33.6260 H      2296  TIP2146     0.2052
 25800 H2          28.0660    19.0410   -34.4390 H      2296  TIP2146     0.2052
 25801 OH2         11.2540   -18.3760   -33.4630 O.3    2297  TIP2147    -0.4105
 25802 H1          12.1120   -18.5800   -33.0900 H      2297  TIP2147     0.2052
 25803 H2          11.2520   -18.8130   -34.3140 H      2297  TIP2147     0.2052
 25804 OH2          1.6410   -29.5210   -38.8260 O.3    2298  TIP2148    -0.4105
 25805 H1           1.0100   -28.8490   -39.0840 H      2298  TIP2148     0.2052
 25806 H2           2.3340   -29.0390   -38.3740 H      2298  TIP2148     0.2052
 25807 OH2         18.3150    -4.8620   -21.6000 O.3    2299  TIP2149    -0.4105
 25808 H1          18.7960    -4.1780   -22.0660 H      2299  TIP2149     0.2052
 25809 H2          17.8440    -4.3960   -20.9100 H      2299  TIP2149     0.2052
 25810 OH2        -19.3180     9.8800    52.8900 O.3    2300  TIP2150    -0.4105
 25811 H1         -19.4820     9.1600    52.2800 H      2300  TIP2150     0.2052
 25812 H2         -20.1820    10.2580    53.0520 H      2300  TIP2150     0.2052
 25813 OH2          2.6320    -1.9260   -18.9230 O.3    2301  TIP2151    -0.4105
 25814 H1           2.2070    -2.0920   -19.7640 H      2301  TIP2151     0.2052
 25815 H2           2.2920    -2.6070   -18.3430 H      2301  TIP2151     0.2052
 25816 OH2         30.8230    -0.9130    40.6190 O.3    2302  TIP2152    -0.4105
 25817 H1          30.5490    -0.1120    41.0650 H      2302  TIP2152     0.2052
 25818 H2          31.4900    -0.6260    39.9960 H      2302  TIP2152     0.2052
 25819 OH2         -3.1530     5.4670   -29.2900 O.3    2303  TIP2153    -0.4105
 25820 H1          -2.7150     5.1840   -28.4870 H      2303  TIP2153     0.2052
 25821 H2          -2.8250     4.8730   -29.9650 H      2303  TIP2153     0.2052
 25822 OH2         31.8280    11.1210   -35.8820 O.3    2304  TIP2154    -0.4105
 25823 H1          31.1310    11.0670   -35.2270 H      2304  TIP2154     0.2052
 25824 H2          31.7110    10.3400   -36.4230 H      2304  TIP2154     0.2052
 25825 OH2         18.2440   -24.0400   -21.4960 O.3    2305  TIP2155    -0.4105
 25826 H1          18.2850   -23.1390   -21.8140 H      2305  TIP2155     0.2052
 25827 H2          18.2660   -23.9590   -20.5420 H      2305  TIP2155     0.2052
 25828 OH2        -26.8480   -30.6800   -52.0770 O.3    2306  TIP2156    -0.4105
 25829 H1         -26.2330   -30.8190   -51.3570 H      2306  TIP2156     0.2052
 25830 H2         -27.5540   -30.1600   -51.6930 H      2306  TIP2156     0.2052
 25831 OH2         10.1590     8.6330    51.0380 O.3    2307  TIP2157    -0.4105
 25832 H1          10.3050     8.9670    51.9230 H      2307  TIP2157     0.2052
 25833 H2          11.0370     8.4520    50.7020 H      2307  TIP2157     0.2052
 25834 OH2         19.2760   -31.5150   -51.7310 O.3    2308  TIP2158    -0.4105
 25835 H1          19.2350   -31.8500   -52.6270 H      2308  TIP2158     0.2052
 25836 H2          20.2100   -31.3850   -51.5660 H      2308  TIP2158     0.2052
 25837 OH2         21.6530     9.1310    48.1010 O.3    2309  TIP2159    -0.4105
 25838 H1          21.1740     9.7590    48.6410 H      2309  TIP2159     0.2052
 25839 H2          22.5700     9.2540    48.3460 H      2309  TIP2159     0.2052
 25840 OH2        -28.6700    14.5250   -20.5000 O.3    2310  TIP2160    -0.4105
 25841 H1         -28.5060    15.0230   -21.3010 H      2310  TIP2160     0.2052
 25842 H2         -29.5060    14.0860   -20.6590 H      2310  TIP2160     0.2052
 25843 OH2         25.0680   -31.3880    51.3430 O.3    2311  TIP2161    -0.4105
 25844 H1          24.4350   -31.2190    52.0400 H      2311  TIP2161     0.2052
 25845 H2          24.5330   -31.6360    50.5880 H      2311  TIP2161     0.2052
 25846 OH2        -18.4500    32.2360    24.6750 O.3    2312  TIP2162    -0.4105
 25847 H1         -18.5130    32.7860    25.4550 H      2312  TIP2162     0.2052
 25848 H2         -17.5360    32.3090    24.4020 H      2312  TIP2162     0.2052
 25849 OH2         21.9420    12.0840    32.0540 O.3    2313  TIP2163    -0.4105
 25850 H1          22.0880    13.0300    32.0370 H      2313  TIP2163     0.2052
 25851 H2          21.0170    11.9790    31.8350 H      2313  TIP2163     0.2052
 25852 OH2         17.9990    19.4800   -41.5320 O.3    2314  TIP2164    -0.4105
 25853 H1          17.6820    20.3560   -41.7530 H      2314  TIP2164     0.2052
 25854 H2          18.1000    19.4950   -40.5800 H      2314  TIP2164     0.2052
 25855 OH2         25.0140    30.2860    51.9340 O.3    2315  TIP2165    -0.4105
 25856 H1          24.2890    30.9070    52.0010 H      2315  TIP2165     0.2052
 25857 H2          25.1940    30.2280    50.9960 H      2315  TIP2165     0.2052
 25858 OH2         31.7680    -1.8090   -38.6030 O.3    2316  TIP2166    -0.4105
 25859 H1          32.3800    -2.4790   -38.2990 H      2316  TIP2166     0.2052
 25860 H2          32.1840    -0.9800   -38.3680 H      2316  TIP2166     0.2052
 25861 OH2         23.3320   -27.8770    31.9100 O.3    2317  TIP2167    -0.4105
 25862 H1          22.6220   -28.2980    32.3950 H      2317  TIP2167     0.2052
 25863 H2          23.1610   -28.0970    30.9940 H      2317  TIP2167     0.2052
 25864 OH2         -0.4460    11.0140   -36.8650 O.3    2318  TIP2168    -0.4105
 25865 H1          -1.1980    11.4880   -37.2200 H      2318  TIP2168     0.2052
 25866 H2          -0.8280    10.3680   -36.2700 H      2318  TIP2168     0.2052
 25867 OH2        -26.2770   -24.4590   -39.3900 O.3    2319  TIP2169    -0.4105
 25868 H1         -25.8480   -24.1200   -40.1750 H      2319  TIP2169     0.2052
 25869 H2         -26.2490   -25.4110   -39.4930 H      2319  TIP2169     0.2052
 25870 OH2          6.8330   -19.5060   -34.9020 O.3    2320  TIP2170    -0.4105
 25871 H1           6.2070   -20.0470   -35.3850 H      2320  TIP2170     0.2052
 25872 H2           6.9480   -18.7280   -35.4470 H      2320  TIP2170     0.2052
 25873 OH2         12.7190   -30.5120   -33.7560 O.3    2321  TIP2171    -0.4105
 25874 H1          12.3010   -31.3200   -33.4580 H      2321  TIP2171     0.2052
 25875 H2          12.7780   -29.9690   -32.9700 H      2321  TIP2171     0.2052
 25876 OH2        -23.1960    32.0840   -40.8840 O.3    2322  TIP2172    -0.4105
 25877 H1         -24.0010    32.3260   -40.4270 H      2322  TIP2172     0.2052
 25878 H2         -22.4980    32.5020   -40.3790 H      2322  TIP2172     0.2052
 25879 OH2          2.2230     1.3890    32.0440 O.3    2323  TIP2173    -0.4105
 25880 H1           2.3080     1.1000    32.9520 H      2323  TIP2173     0.2052
 25881 H2           1.8310     0.6440    31.5900 H      2323  TIP2173     0.2052
 25882 OH2         28.8440   -24.2060   -37.0570 O.3    2324  TIP2174    -0.4105
 25883 H1          29.2120   -24.5740   -37.8600 H      2324  TIP2174     0.2052
 25884 H2          28.6830   -24.9650   -36.4970 H      2324  TIP2174     0.2052
 25885 OH2        -31.9970    30.6210   -52.6610 O.3    2325  TIP2175    -0.4105
 25886 H1         -32.1900    31.5370   -52.4630 H      2325  TIP2175     0.2052
 25887 H2         -32.2800    30.5060   -53.5680 H      2325  TIP2175     0.2052
 25888 OH2          5.6210   -26.3650   -28.2990 O.3    2326  TIP2176    -0.4105
 25889 H1           5.4690   -25.4200   -28.2970 H      2326  TIP2176     0.2052
 25890 H2           5.6140   -26.6070   -29.2250 H      2326  TIP2176     0.2052
 25891 OH2          6.2200   -17.2110   -23.5510 O.3    2327  TIP2177    -0.4105
 25892 H1           6.5970   -17.3580   -22.6830 H      2327  TIP2177     0.2052
 25893 H2           6.7280   -17.7770   -24.1320 H      2327  TIP2177     0.2052
 25894 OH2        -12.5860   -16.5260    43.6240 O.3    2328  TIP2178    -0.4105
 25895 H1         -13.4760   -16.3150    43.9060 H      2328  TIP2178     0.2052
 25896 H2         -12.2260   -15.6930    43.3210 H      2328  TIP2178     0.2052
 25897 OH2         24.9570    28.3520   -44.8780 O.3    2329  TIP2179    -0.4105
 25898 H1          25.0740    27.7610   -44.1350 H      2329  TIP2179     0.2052
 25899 H2          25.5820    28.0410   -45.5330 H      2329  TIP2179     0.2052
 25900 OH2         10.8600   -18.4920   -48.6090 O.3    2330  TIP2180    -0.4105
 25901 H1          11.2740   -17.6920   -48.9320 H      2330  TIP2180     0.2052
 25902 H2          10.2590   -18.7500   -49.3080 H      2330  TIP2180     0.2052
 25903 OH2         13.3640    29.5360   -55.2830 O.3    2331  TIP2181    -0.4105
 25904 H1          12.5510    30.0280   -55.3980 H      2331  TIP2181     0.2052
 25905 H2          13.0970    28.7320   -54.8390 H      2331  TIP2181     0.2052
 25906 OH2          7.3940    19.5490    49.3990 O.3    2332  TIP2182    -0.4105
 25907 H1           7.2140    18.9090    50.0870 H      2332  TIP2182     0.2052
 25908 H2           7.2640    20.3980    49.8210 H      2332  TIP2182     0.2052
 25909 OH2        -25.3070    -7.3860    33.6300 O.3    2333  TIP2183    -0.4105
 25910 H1         -26.0380    -7.4960    34.2380 H      2333  TIP2183     0.2052
 25911 H2         -25.6770    -6.8940    32.8970 H      2333  TIP2183     0.2052
 25912 OH2         25.3370   -16.8080   -22.4510 O.3    2334  TIP2184    -0.4105
 25913 H1          25.4310   -15.8850   -22.2170 H      2334  TIP2184     0.2052
 25914 H2          25.9130   -17.2700   -21.8420 H      2334  TIP2184     0.2052
 25915 OH2        -11.4490     1.9900   -23.5290 O.3    2335  TIP2185    -0.4105
 25916 H1         -11.3770     1.0360   -23.5130 H      2335  TIP2185     0.2052
 25917 H2         -11.2840     2.2280   -24.4420 H      2335  TIP2185     0.2052
 25918 OH2         -8.1940    -5.0210   -51.4450 O.3    2336  TIP2186    -0.4105
 25919 H1          -7.5910    -4.3490   -51.7630 H      2336  TIP2186     0.2052
 25920 H2          -8.2600    -4.8600   -50.5040 H      2336  TIP2186     0.2052
 25921 OH2         22.6730   -25.6380    43.6210 O.3    2337  TIP2187    -0.4105
 25922 H1          22.8650   -26.4420    43.1390 H      2337  TIP2187     0.2052
 25923 H2          22.6240   -25.9130    44.5370 H      2337  TIP2187     0.2052
 25924 OH2        -11.6950   -31.9540    44.0730 O.3    2338  TIP2188    -0.4105
 25925 H1         -11.1260   -31.1840    44.0540 H      2338  TIP2188     0.2052
 25926 H2         -11.8060   -32.1480    45.0030 H      2338  TIP2188     0.2052
 25927 OH2         -5.9370   -14.4750    29.5930 O.3    2339  TIP2189    -0.4105
 25928 H1          -5.2340   -14.2710    28.9770 H      2339  TIP2189     0.2052
 25929 H2          -5.8210   -15.4040    29.7910 H      2339  TIP2189     0.2052
 25930 OH2        -19.6560   -28.0210    47.7580 O.3    2340  TIP2190    -0.4105
 25931 H1         -20.4860   -28.1640    48.2120 H      2340  TIP2190     0.2052
 25932 H2         -18.9870   -28.2700    48.3960 H      2340  TIP2190     0.2052
 25933 OH2          0.7270   -23.8790   -34.5250 O.3    2341  TIP2191    -0.4105
 25934 H1           0.8520   -23.0570   -34.0520 H      2341  TIP2191     0.2052
 25935 H2           1.5920   -24.2890   -34.5260 H      2341  TIP2191     0.2052
 25936 OH2         30.6400   -31.8150    35.8050 O.3    2342  TIP2192    -0.4105
 25937 H1          30.9390   -32.0490    34.9260 H      2342  TIP2192     0.2052
 25938 H2          30.0690   -32.5380    36.0640 H      2342  TIP2192     0.2052
 25939 OH2        -19.7640   -28.7010    33.2500 O.3    2343  TIP2193    -0.4105
 25940 H1         -19.0330   -28.3620    33.7680 H      2343  TIP2193     0.2052
 25941 H2         -20.5180   -28.1830    33.5320 H      2343  TIP2193     0.2052
 25942 OH2         30.8620    20.5160   -39.2170 O.3    2344  TIP2194    -0.4105
 25943 H1          31.7740    20.8020   -39.1740 H      2344  TIP2194     0.2052
 25944 H2          30.4790    20.8140   -38.3920 H      2344  TIP2194     0.2052
 25945 OH2         10.6320    17.6870   -50.0530 O.3    2345  TIP2195    -0.4105
 25946 H1           9.7370    17.3500   -50.0160 H      2345  TIP2195     0.2052
 25947 H2          10.9010    17.5540   -50.9620 H      2345  TIP2195     0.2052
 25948 OH2         26.3320   -11.8880    34.4710 O.3    2346  TIP2196    -0.4105
 25949 H1          27.1010   -11.4510    34.8360 H      2346  TIP2196     0.2052
 25950 H2          25.6330   -11.7110    35.1010 H      2346  TIP2196     0.2052
 25951 OH2         18.0600     3.6420    51.1130 O.3    2347  TIP2197    -0.4105
 25952 H1          18.1220     3.9600    52.0130 H      2347  TIP2197     0.2052
 25953 H2          17.7700     4.4020    50.6090 H      2347  TIP2197     0.2052
 25954 OH2         17.3630     8.3180    37.8510 O.3    2348  TIP2198    -0.4105
 25955 H1          18.2170     8.6680    37.5970 H      2348  TIP2198     0.2052
 25956 H2          17.2920     7.4900    37.3760 H      2348  TIP2198     0.2052
 25957 OH2         31.8180   -30.7680   -30.0870 O.3    2349  TIP2199    -0.4105
 25958 H1          32.7380   -30.5140   -30.0200 H      2349  TIP2199     0.2052
 25959 H2          31.6800   -30.9260   -31.0210 H      2349  TIP2199     0.2052
 25960 OH2         -9.9330    11.4410    53.3970 O.3    2350  TIP2200    -0.4105
 25961 H1         -10.2640    10.7180    52.8630 H      2350  TIP2200     0.2052
 25962 H2          -9.0140    11.2250    53.5510 H      2350  TIP2200     0.2052
 25963 OH2         -1.6710    -5.9870   -33.0960 O.3    2351  TIP2201    -0.4105
 25964 H1          -1.5490    -5.2790   -33.7280 H      2351  TIP2201     0.2052
 25965 H2          -1.4220    -6.7790   -33.5720 H      2351  TIP2201     0.2052
 25966 OH2         27.3650   -13.6180   -36.3800 O.3    2352  TIP2202    -0.4105
 25967 H1          27.9700   -13.7600   -35.6520 H      2352  TIP2202     0.2052
 25968 H2          27.8990   -13.2060   -37.0590 H      2352  TIP2202     0.2052
 25969 OH2          0.6440     9.2470   -38.9200 O.3    2353  TIP2203    -0.4105
 25970 H1           1.3170     8.5850   -38.7630 H      2353  TIP2203     0.2052
 25971 H2           0.7930     9.9070   -38.2420 H      2353  TIP2203     0.2052
 25972 OH2          8.4090   -18.6500   -25.7610 O.3    2354  TIP2204    -0.4105
 25973 H1           8.9150   -18.8050   -24.9630 H      2354  TIP2204     0.2052
 25974 H2           9.0610   -18.3940   -26.4130 H      2354  TIP2204     0.2052
 25975 OH2        -25.8720    17.9830   -37.8590 O.3    2355  TIP2205    -0.4105
 25976 H1         -25.6030    18.3850   -37.0320 H      2355  TIP2205     0.2052
 25977 H2         -26.2010    18.7110   -38.3850 H      2355  TIP2205     0.2052
 25978 OH2         -6.4230    26.2650   -51.0730 O.3    2356  TIP2206    -0.4105
 25979 H1          -6.7260    27.0320   -51.5590 H      2356  TIP2206     0.2052
 25980 H2          -5.8630    25.7950   -51.6910 H      2356  TIP2206     0.2052
 25981 OH2         29.9080     6.0050    42.7600 O.3    2357  TIP2207    -0.4105
 25982 H1          30.4350     6.1170    41.9690 H      2357  TIP2207     0.2052
 25983 H2          29.9440     5.0660    42.9420 H      2357  TIP2207     0.2052
 25984 OH2        -10.5010    -5.9920   -45.8540 O.3    2358  TIP2208    -0.4105
 25985 H1         -11.1450    -5.6480   -46.4730 H      2358  TIP2208     0.2052
 25986 H2         -10.7490    -6.9090   -45.7340 H      2358  TIP2208     0.2052
 25987 OH2          6.9610    12.9950   -37.5380 O.3    2359  TIP2209    -0.4105
 25988 H1           6.6920    13.5410   -38.2770 H      2359  TIP2209     0.2052
 25989 H2           6.3890    13.2650   -36.8190 H      2359  TIP2209     0.2052
 25990 OH2        -24.7380    23.5220   -52.1260 O.3    2360  TIP2210    -0.4105
 25991 H1         -25.4260    23.3340   -51.4890 H      2360  TIP2210     0.2052
 25992 H2         -24.5340    22.6720   -52.5170 H      2360  TIP2210     0.2052
 25993 OH2         18.2320    30.2890    45.5090 O.3    2361  TIP2211    -0.4105
 25994 H1          18.9810    30.0020    46.0310 H      2361  TIP2211     0.2052
 25995 H2          17.4860    30.2330    46.1070 H      2361  TIP2211     0.2052
 25996 OH2         20.0630    -4.5580    48.5220 O.3    2362  TIP2212    -0.4105
 25997 H1          19.5010    -5.1260    47.9940 H      2362  TIP2212     0.2052
 25998 H2          19.8560    -4.7910    49.4270 H      2362  TIP2212     0.2052
 25999 OH2        -32.3190     5.6410    52.2550 O.3    2363  TIP2213    -0.4105
 26000 H1         -33.1810     5.5980    51.8420 H      2363  TIP2213     0.2052
 26001 H2         -31.7130     5.7930    51.5290 H      2363  TIP2213     0.2052
 26002 OH2         19.0780   -15.8920   -41.2870 O.3    2364  TIP2214    -0.4105
 26003 H1          19.0290   -16.7020   -40.7800 H      2364  TIP2214     0.2052
 26004 H2          19.9530   -15.5490   -41.1080 H      2364  TIP2214     0.2052
 26005 OH2         -0.8980    12.5420   -26.6770 O.3    2365  TIP2215    -0.4105
 26006 H1          -1.5960    12.8720   -27.2440 H      2365  TIP2215     0.2052
 26007 H2          -1.1490    11.6370   -26.4900 H      2365  TIP2215     0.2052
 26008 OH2          5.8210    -1.3050    35.7280 O.3    2366  TIP2216    -0.4105
 26009 H1           6.0300    -1.5440    36.6310 H      2366  TIP2216     0.2052
 26010 H2           6.6210    -1.4920    35.2390 H      2366  TIP2216     0.2052
 26011 OH2          5.4510   -30.7060    33.8630 O.3    2367  TIP2217    -0.4105
 26012 H1           5.7190   -30.0060    33.2670 H      2367  TIP2217     0.2052
 26013 H2           4.6590   -31.0690    33.4660 H      2367  TIP2217     0.2052
 26014 OH2        -20.6850    31.1660   -32.0850 O.3    2368  TIP2218    -0.4105
 26015 H1         -20.0800    30.5910   -31.6170 H      2368  TIP2218     0.2052
 26016 H2         -21.4900    30.6540   -32.1640 H      2368  TIP2218     0.2052
 26017 OH2        -18.0400   -15.1220   -37.6050 O.3    2369  TIP2219    -0.4105
 26018 H1         -17.7630   -15.6840   -38.3290 H      2369  TIP2219     0.2052
 26019 H2         -17.6980   -15.5540   -36.8220 H      2369  TIP2219     0.2052
 26020 OH2         22.7160   -18.4130    52.1720 O.3    2370  TIP2220    -0.4105
 26021 H1          22.6190   -18.8350    53.0260 H      2370  TIP2220     0.2052
 26022 H2          23.4070   -17.7630    52.3030 H      2370  TIP2220     0.2052
 26023 OH2         27.6370    -5.8900    42.5820 O.3    2371  TIP2221    -0.4105
 26024 H1          27.4980    -4.9590    42.4130 H      2371  TIP2221     0.2052
 26025 H2          28.0870    -5.9160    43.4270 H      2371  TIP2221     0.2052
 26026 OH2        -11.2580   -14.8050    22.5970 O.3    2372  TIP2222    -0.4105
 26027 H1         -10.8110   -14.4800    21.8160 H      2372  TIP2222     0.2052
 26028 H2         -11.0870   -14.1410    23.2660 H      2372  TIP2222     0.2052
 26029 OH2         31.2670   -14.1760   -52.0780 O.3    2373  TIP2223    -0.4105
 26030 H1          31.3130   -13.2430   -52.2860 H      2373  TIP2223     0.2052
 26031 H2          32.0320   -14.5560   -52.5090 H      2373  TIP2223     0.2052
 26032 OH2          1.7210    17.7010    50.4880 O.3    2374  TIP2224    -0.4105
 26033 H1           1.8010    18.5000    49.9670 H      2374  TIP2224     0.2052
 26034 H2           1.5210    17.0170    49.8490 H      2374  TIP2224     0.2052
 26035 OH2          2.1000    -0.0620   -52.4940 O.3    2375  TIP2225    -0.4105
 26036 H1           2.3780    -0.0550   -51.5780 H      2375  TIP2225     0.2052
 26037 H2           2.2060    -0.9720   -52.7700 H      2375  TIP2225     0.2052
 26038 OH2          0.5870    17.6790   -53.3620 O.3    2376  TIP2226    -0.4105
 26039 H1          -0.2010    17.7760   -53.8980 H      2376  TIP2226     0.2052
 26040 H2           0.2590    17.4470   -52.4930 H      2376  TIP2226     0.2052
 26041 OH2        -16.0670    11.8910    38.0200 O.3    2377  TIP2227    -0.4105
 26042 H1         -16.5650    12.5790    38.4610 H      2377  TIP2227     0.2052
 26043 H2         -15.6290    12.3390    37.2960 H      2377  TIP2227     0.2052
 26044 OH2        -30.5250     9.8950   -39.9590 O.3    2378  TIP2228    -0.4105
 26045 H1         -30.5660    10.7540   -39.5370 H      2378  TIP2228     0.2052
 26046 H2         -30.7570    10.0660   -40.8720 H      2378  TIP2228     0.2052
 26047 OH2        -14.1240   -15.4130   -50.2700 O.3    2379  TIP2229    -0.4105
 26048 H1         -15.0660   -15.5690   -50.3400 H      2379  TIP2229     0.2052
 26049 H2         -13.9070   -15.6580   -49.3710 H      2379  TIP2229     0.2052
 26050 OH2        -10.7950   -21.0210   -54.9790 O.3    2380  TIP2230    -0.4105
 26051 H1         -10.7500   -20.9580   -55.9330 H      2380  TIP2230     0.2052
 26052 H2         -10.1680   -20.3690   -54.6660 H      2380  TIP2230     0.2052
 26053 OH2         12.9080    22.5530   -26.1300 O.3    2381  TIP2231    -0.4105
 26054 H1          13.6200    22.8510   -26.6960 H      2381  TIP2231     0.2052
 26055 H2          12.1600    22.4500   -26.7180 H      2381  TIP2231     0.2052
 26056 OH2        -13.5130    27.9370   -45.1350 O.3    2382  TIP2232    -0.4105
 26057 H1         -14.0710    28.5530   -45.6100 H      2382  TIP2232     0.2052
 26058 H2         -12.6730    28.3870   -45.0530 H      2382  TIP2232     0.2052
 26059 OH2          6.8480   -11.7180   -36.3220 O.3    2383  TIP2233    -0.4105
 26060 H1           7.1850   -12.0800   -37.1410 H      2383  TIP2233     0.2052
 26061 H2           7.1570   -10.8120   -36.3150 H      2383  TIP2233     0.2052
 26062 OH2         13.5440    -9.6100    47.0280 O.3    2384  TIP2234    -0.4105
 26063 H1          12.8450   -10.0610    47.5010 H      2384  TIP2234     0.2052
 26064 H2          14.1820    -9.3800    47.7040 H      2384  TIP2234     0.2052
 26065 OH2         15.7270   -22.8650    25.6430 O.3    2385  TIP2235    -0.4105
 26066 H1          14.9670   -23.4040    25.8630 H      2385  TIP2235     0.2052
 26067 H2          15.4900   -21.9850    25.9350 H      2385  TIP2235     0.2052
 26068 OH2          9.4240    30.1330    45.7120 O.3    2386  TIP2236    -0.4105
 26069 H1           9.3320    29.5090    44.9930 H      2386  TIP2236     0.2052
 26070 H2           8.8870    30.8820    45.4510 H      2386  TIP2236     0.2052
 26071 OH2        -18.7080    23.5160   -40.9960 O.3    2387  TIP2237    -0.4105
 26072 H1         -18.0500    24.1960   -40.8460 H      2387  TIP2237     0.2052
 26073 H2         -19.1130    23.7540   -41.8300 H      2387  TIP2237     0.2052
 26074 OH2         26.6240   -24.4650   -49.9640 O.3    2388  TIP2238    -0.4105
 26075 H1          26.7160   -24.1410   -49.0680 H      2388  TIP2238     0.2052
 26076 H2          27.2030   -23.9060   -50.4820 H      2388  TIP2238     0.2052
 26077 OH2        -15.7570    -0.1760   -16.3270 O.3    2389  TIP2239    -0.4105
 26078 H1         -16.5400    -0.4690   -16.7930 H      2389  TIP2239     0.2052
 26079 H2         -15.8070    -0.6100   -15.4760 H      2389  TIP2239     0.2052
 26080 OH2          6.6450   -14.9760   -32.2300 O.3    2390  TIP2240    -0.4105
 26081 H1           7.0460   -14.6650   -33.0410 H      2390  TIP2240     0.2052
 26082 H2           7.1670   -14.5760   -31.5340 H      2390  TIP2240     0.2052
 26083 OH2         25.4820   -20.3700    27.0080 O.3    2391  TIP2241    -0.4105
 26084 H1          25.1750   -19.6420    26.4680 H      2391  TIP2241     0.2052
 26085 H2          26.4360   -20.3370    26.9360 H      2391  TIP2241     0.2052
 26086 OH2         23.2890    16.3950   -47.4870 O.3    2392  TIP2242    -0.4105
 26087 H1          23.3330    16.9330   -46.6960 H      2392  TIP2242     0.2052
 26088 H2          22.6550    16.8430   -48.0470 H      2392  TIP2242     0.2052
 26089 OH2        -27.9150     9.6690   -18.7010 O.3    2393  TIP2243    -0.4105
 26090 H1         -27.5670    10.5430   -18.5270 H      2393  TIP2243     0.2052
 26091 H2         -28.5800     9.8050   -19.3760 H      2393  TIP2243     0.2052
 26092 OH2         17.9910   -21.0500   -31.5100 O.3    2394  TIP2244    -0.4105
 26093 H1          18.7700   -20.7050   -31.0750 H      2394  TIP2244     0.2052
 26094 H2          17.8190   -21.8830   -31.0690 H      2394  TIP2244     0.2052
 26095 OH2         -8.2180    19.3710   -35.5060 O.3    2395  TIP2245    -0.4105
 26096 H1          -7.4080    19.1590   -35.0430 H      2395  TIP2245     0.2052
 26097 H2          -8.8960    19.3390   -34.8320 H      2395  TIP2245     0.2052
 26098 OH2         -9.5180    22.9010    31.1490 O.3    2396  TIP2246    -0.4105
 26099 H1          -9.0140    22.5560    30.4130 H      2396  TIP2246     0.2052
 26100 H2          -8.8920    22.9390    31.8720 H      2396  TIP2246     0.2052
 26101 OH2        -27.3890    -2.1590    42.7720 O.3    2397  TIP2247    -0.4105
 26102 H1         -28.0330    -1.6620    43.2770 H      2397  TIP2247     0.2052
 26103 H2         -27.8120    -3.0020    42.6070 H      2397  TIP2247     0.2052
 26104 OH2        -19.0060    23.0120   -50.2420 O.3    2398  TIP2248    -0.4105
 26105 H1         -19.7620    22.5060   -50.5410 H      2398  TIP2248     0.2052
 26106 H2         -19.1360    23.8830   -50.6170 H      2398  TIP2248     0.2052
 26107 OH2         15.2290    -1.4990   -53.9210 O.3    2399  TIP2249    -0.4105
 26108 H1          15.9410    -1.5580   -54.5580 H      2399  TIP2249     0.2052
 26109 H2          15.0880    -0.5590   -53.8050 H      2399  TIP2249     0.2052
 26110 OH2         26.8130    12.5060    51.6010 O.3    2400  TIP2250    -0.4105
 26111 H1          26.9030    13.2310    52.2180 H      2400  TIP2250     0.2052
 26112 H2          26.7740    12.9260    50.7410 H      2400  TIP2250     0.2052
 26113 OH2        -27.9090    -2.8090   -20.3820 O.3    2401  TIP2251    -0.4105
 26114 H1         -28.1100    -3.2120   -21.2270 H      2401  TIP2251     0.2052
 26115 H2         -27.2550    -3.3880   -19.9900 H      2401  TIP2251     0.2052
 26116 OH2        -19.3970    12.5350   -32.7630 O.3    2402  TIP2252    -0.4105
 26117 H1         -19.0790    12.6020   -31.8630 H      2402  TIP2252     0.2052
 26118 H2         -20.2800    12.9030   -32.7330 H      2402  TIP2252     0.2052
 26119 OH2         28.2690   -29.9900    53.3260 O.3    2403  TIP2253    -0.4105
 26120 H1          28.9340   -30.0720    54.0100 H      2403  TIP2253     0.2052
 26121 H2          28.2750   -30.8390    52.8830 H      2403  TIP2253     0.2052
 26122 OH2        -15.9340   -21.8760   -35.1810 O.3    2404  TIP2254    -0.4105
 26123 H1         -16.6960   -21.5620   -35.6680 H      2404  TIP2254     0.2052
 26124 H2         -16.2520   -21.9920   -34.2860 H      2404  TIP2254     0.2052
 26125 OH2        -20.7280     2.2670   -51.8710 O.3    2405  TIP2255    -0.4105
 26126 H1         -21.3070     2.7250   -52.4810 H      2405  TIP2255     0.2052
 26127 H2         -21.0480     2.5150   -51.0040 H      2405  TIP2255     0.2052
 26128 OH2          2.4420    14.8290    18.0390 O.3    2406  TIP2256    -0.4105
 26129 H1           2.3570    13.9820    18.4760 H      2406  TIP2256     0.2052
 26130 H2           1.7730    14.8140    17.3550 H      2406  TIP2256     0.2052
 26131 OH2        -27.9340   -26.7040    50.7380 O.3    2407  TIP2257    -0.4105
 26132 H1         -27.1010   -26.9790    50.3540 H      2407  TIP2257     0.2052
 26133 H2         -28.5910   -27.2430    50.2980 H      2407  TIP2257     0.2052
 26134 OH2         30.5220    -8.6150    29.1230 O.3    2408  TIP2258    -0.4105
 26135 H1          29.6190    -8.4970    29.4170 H      2408  TIP2258     0.2052
 26136 H2          30.4620    -8.6430    28.1680 H      2408  TIP2258     0.2052
 26137 OH2         24.2920   -16.0850    33.6530 O.3    2409  TIP2259    -0.4105
 26138 H1          24.8570   -15.7690    32.9480 H      2409  TIP2259     0.2052
 26139 H2          23.4680   -16.3080    33.2190 H      2409  TIP2259     0.2052
 26140 OH2        -14.2480     6.9300    53.6840 O.3    2410  TIP2260    -0.4105
 26141 H1         -14.4890     6.0970    54.0880 H      2410  TIP2260     0.2052
 26142 H2         -14.1220     7.5270    54.4230 H      2410  TIP2260     0.2052
 26143 OH2          9.9020   -17.7290    39.6230 O.3    2411  TIP2261    -0.4105
 26144 H1           9.7470   -18.4080    40.2800 H      2411  TIP2261     0.2052
 26145 H2           9.2370   -17.8870    38.9530 H      2411  TIP2261     0.2052
 26146 OH2        -17.3900    25.8600    27.1920 O.3    2412  TIP2262    -0.4105
 26147 H1         -17.3500    26.4400    27.9520 H      2412  TIP2262     0.2052
 26148 H2         -16.9110    26.3290    26.5070 H      2412  TIP2262     0.2052
 26149 OH2        -19.7350   -14.7970    49.2760 O.3    2413  TIP2263    -0.4105
 26150 H1         -19.0560   -15.2900    49.7370 H      2413  TIP2263     0.2052
 26151 H2         -19.6410   -15.0580    48.3600 H      2413  TIP2263     0.2052
 26152 OH2        -29.3040    -5.5780    46.9080 O.3    2414  TIP2264    -0.4105
 26153 H1         -29.0620    -6.4830    47.1070 H      2414  TIP2264     0.2052
 26154 H2         -29.7080    -5.2560    47.7130 H      2414  TIP2264     0.2052
 26155 OH2         -8.9210    11.7960   -36.7570 O.3    2415  TIP2265    -0.4105
 26156 H1          -8.5530    10.9630   -36.4640 H      2415  TIP2265     0.2052
 26157 H2          -8.6480    11.8710   -37.6710 H      2415  TIP2265     0.2052
 26158 OH2         16.6850    32.4280    51.5180 O.3    2416  TIP2266    -0.4105
 26159 H1          16.9280    33.2720    51.8990 H      2416  TIP2266     0.2052
 26160 H2          16.4790    31.8750    52.2710 H      2416  TIP2266     0.2052
 26161 OH2         23.9770    28.1110    31.3980 O.3    2417  TIP2267    -0.4105
 26162 H1          24.0690    27.4590    30.7030 H      2417  TIP2267     0.2052
 26163 H2          24.7930    28.6110    31.3670 H      2417  TIP2267     0.2052
 26164 OH2        -21.9830    17.9520   -53.6400 O.3    2418  TIP2268    -0.4105
 26165 H1         -21.9120    18.8730   -53.8890 H      2418  TIP2268     0.2052
 26166 H2         -22.8920    17.7210   -53.8330 H      2418  TIP2268     0.2052
 26167 OH2         30.2520    27.2510    18.2290 O.3    2419  TIP2269    -0.4105
 26168 H1          29.4140    26.7900    18.2560 H      2419  TIP2269     0.2052
 26169 H2          30.7950    26.8000    18.8760 H      2419  TIP2269     0.2052
 26170 OH2          0.4910    -3.6430    39.6020 O.3    2420  TIP2270    -0.4105
 26171 H1           0.4070    -3.1910    40.4420 H      2420  TIP2270     0.2052
 26172 H2          -0.1390    -4.3610    39.6520 H      2420  TIP2270     0.2052
 26173 OH2         21.1950     6.0300    51.7990 O.3    2421  TIP2271    -0.4105
 26174 H1          20.3670     6.1130    52.2720 H      2421  TIP2271     0.2052
 26175 H2          21.7130     6.7810    52.0910 H      2421  TIP2271     0.2052
 26176 OH2         22.8830    -7.9070    29.6410 O.3    2422  TIP2272    -0.4105
 26177 H1          22.9080    -7.4380    30.4750 H      2422  TIP2272     0.2052
 26178 H2          23.1360    -8.8030    29.8630 H      2422  TIP2272     0.2052
 26179 OH2          8.7810    -4.0410   -24.9240 O.3    2423  TIP2273    -0.4105
 26180 H1           7.8570    -4.1900   -25.1250 H      2423  TIP2273     0.2052
 26181 H2           9.2430    -4.2830   -25.7260 H      2423  TIP2273     0.2052
 26182 OH2         15.6330   -16.2010    40.4250 O.3    2424  TIP2274    -0.4105
 26183 H1          15.3380   -15.4510    39.9080 H      2424  TIP2274     0.2052
 26184 H2          15.5460   -16.9490    39.8340 H      2424  TIP2274     0.2052
 26185 OH2        -27.6110   -16.2320    48.4070 O.3    2425  TIP2275    -0.4105
 26186 H1         -27.0820   -16.5850    47.6910 H      2425  TIP2275     0.2052
 26187 H2         -27.0590   -16.3270    49.1830 H      2425  TIP2275     0.2052
 26188 OH2         13.3910     4.1030    46.0420 O.3    2426  TIP2276    -0.4105
 26189 H1          13.5040     5.0520    46.0960 H      2426  TIP2276     0.2052
 26190 H2          12.4440     3.9710    46.0700 H      2426  TIP2276     0.2052
 26191 OH2         30.1750    12.6200    36.8250 O.3    2427  TIP2277    -0.4105
 26192 H1          29.3500    13.0300    36.5640 H      2427  TIP2277     0.2052
 26193 H2          30.2180    12.7510    37.7720 H      2427  TIP2277     0.2052
 26194 OH2         18.6020   -13.0500   -32.3360 O.3    2428  TIP2278    -0.4105
 26195 H1          18.7620   -13.7730   -32.9420 H      2428  TIP2278     0.2052
 26196 H2          19.2220   -12.3710   -32.6030 H      2428  TIP2278     0.2052
 26197 OH2          8.6770    -1.3420   -45.4580 O.3    2429  TIP2279    -0.4105
 26198 H1           8.2800    -2.2090   -45.5430 H      2429  TIP2279     0.2052
 26199 H2           8.4900    -1.0800   -44.5570 H      2429  TIP2279     0.2052
 26200 OH2        -10.9260     3.3310   -52.8890 O.3    2430  TIP2280    -0.4105
 26201 H1         -10.5350     3.7410   -52.1170 H      2430  TIP2280     0.2052
 26202 H2         -10.1950     2.8890   -53.3210 H      2430  TIP2280     0.2052
 26203 OH2        -14.9200   -20.1100    44.3330 O.3    2431  TIP2281    -0.4105
 26204 H1         -14.5110   -19.5070    44.9540 H      2431  TIP2281     0.2052
 26205 H2         -14.3150   -20.1360    43.5910 H      2431  TIP2281     0.2052
 26206 OH2         -8.6690    22.7460   -34.5230 O.3    2432  TIP2282    -0.4105
 26207 H1          -8.8800    23.0670   -33.6470 H      2432  TIP2282     0.2052
 26208 H2          -9.4310    22.2280   -34.7800 H      2432  TIP2282     0.2052
 26209 OH2          6.4280   -31.2800    19.5940 O.3    2433  TIP2283    -0.4105
 26210 H1           6.5880   -30.3560    19.7900 H      2433  TIP2283     0.2052
 26211 H2           5.4900   -31.3270    19.4130 H      2433  TIP2283     0.2052
 26212 OH2        -15.3190    11.9870   -46.0340 O.3    2434  TIP2284    -0.4105
 26213 H1         -15.0400    11.4410   -46.7690 H      2434  TIP2284     0.2052
 26214 H2         -16.2740    11.9220   -46.0350 H      2434  TIP2284     0.2052
 26215 OH2         17.7080   -29.2290   -40.9870 O.3    2435  TIP2285    -0.4105
 26216 H1          18.5340   -29.6280   -40.7150 H      2435  TIP2285     0.2052
 26217 H2          17.3060   -29.8780   -41.5640 H      2435  TIP2285     0.2052
 26218 OH2        -32.2530   -31.3060    50.4450 O.3    2436  TIP2286    -0.4105
 26219 H1         -32.5580   -32.1170    50.8520 H      2436  TIP2286     0.2052
 26220 H2         -31.6410   -30.9340    51.0810 H      2436  TIP2286     0.2052
 26221 OH2         19.3420    18.2300   -48.6130 O.3    2437  TIP2287    -0.4105
 26222 H1          19.2310    18.1910   -49.5630 H      2437  TIP2287     0.2052
 26223 H2          19.3110    17.3160   -48.3310 H      2437  TIP2287     0.2052
 26224 OH2         -9.2510    24.7850    18.2810 O.3    2438  TIP2288    -0.4105
 26225 H1         -10.1000    25.2040    18.4220 H      2438  TIP2288     0.2052
 26226 H2          -8.8490    24.7570    19.1490 H      2438  TIP2288     0.2052
 26227 OH2        -14.3460    30.3180    36.4120 O.3    2439  TIP2289    -0.4105
 26228 H1         -13.5610    30.1010    35.9110 H      2439  TIP2289     0.2052
 26229 H2         -14.8860    29.5290    36.3680 H      2439  TIP2289     0.2052
 26230 OH2         -1.8610   -15.9780   -51.6860 O.3    2440  TIP2290    -0.4105
 26231 H1          -1.8970   -16.8100   -51.2150 H      2440  TIP2290     0.2052
 26232 H2          -0.9580   -15.9170   -51.9970 H      2440  TIP2290     0.2052
 26233 OH2          1.8490    -1.6700    25.8150 O.3    2441  TIP2291    -0.4105
 26234 H1           2.4910    -0.9770    25.9710 H      2441  TIP2291     0.2052
 26235 H2           2.1230    -2.0700    24.9900 H      2441  TIP2291     0.2052
 26236 OH2        -17.7810   -23.4760    37.7470 O.3    2442  TIP2292    -0.4105
 26237 H1         -17.9650   -23.0760    38.5970 H      2442  TIP2292     0.2052
 26238 H2         -17.8650   -22.7570    37.1210 H      2442  TIP2292     0.2052
 26239 OH2         -0.6830    17.0720   -34.2310 O.3    2443  TIP2293    -0.4105
 26240 H1          -0.0440    17.7580   -34.4290 H      2443  TIP2293     0.2052
 26241 H2          -1.4000    17.2290   -34.8440 H      2443  TIP2293     0.2052
 26242 OH2         28.5440   -27.5240   -50.1100 O.3    2444  TIP2294    -0.4105
 26243 H1          29.2230   -26.8940   -50.3530 H      2444  TIP2294     0.2052
 26244 H2          28.1760   -27.1780   -49.2960 H      2444  TIP2294     0.2052
 26245 OH2        -18.9810    29.3460    30.6420 O.3    2445  TIP2295    -0.4105
 26246 H1         -19.7640    28.9410    31.0160 H      2445  TIP2295     0.2052
 26247 H2         -19.2920    29.7810    29.8480 H      2445  TIP2295     0.2052
 26248 OH2        -29.5650   -15.5720   -41.5690 O.3    2446  TIP2296    -0.4105
 26249 H1         -29.9310   -16.3940   -41.2450 H      2446  TIP2296     0.2052
 26250 H2         -30.2080   -14.9080   -41.3210 H      2446  TIP2296     0.2052
 26251 OH2         31.5920   -22.9690    55.0200 O.3    2447  TIP2297    -0.4105
 26252 H1          30.9820   -23.7040    54.9500 H      2447  TIP2297     0.2052
 26253 H2          31.4120   -22.4340    54.2470 H      2447  TIP2297     0.2052
 26254 OH2         14.0310     7.5640   -39.0020 O.3    2448  TIP2298    -0.4105
 26255 H1          14.9120     7.6940   -38.6510 H      2448  TIP2298     0.2052
 26256 H2          13.4820     7.4350   -38.2290 H      2448  TIP2298     0.2052
 26257 OH2        -21.6490    18.1160    43.5300 O.3    2449  TIP2299    -0.4105
 26258 H1         -22.1280    17.2900    43.4660 H      2449  TIP2299     0.2052
 26259 H2         -22.2960    18.7870    43.3110 H      2449  TIP2299     0.2052
 26260 OH2        -31.8250    16.8840   -23.1600 O.3    2450  TIP2300    -0.4105
 26261 H1         -31.8920    16.3800   -22.3490 H      2450  TIP2300     0.2052
 26262 H2         -31.2560    17.6210   -22.9390 H      2450  TIP2300     0.2052
 26263 OH2        -26.6900   -13.7680   -24.7930 O.3    2451  TIP2301    -0.4105
 26264 H1         -27.3410   -13.0800   -24.6550 H      2451  TIP2301     0.2052
 26265 H2         -26.0360   -13.6210   -24.1090 H      2451  TIP2301     0.2052
 26266 OH2         14.8310    -4.4940   -42.1200 O.3    2452  TIP2302    -0.4105
 26267 H1          14.7270    -5.1430   -41.4250 H      2452  TIP2302     0.2052
 26268 H2          15.0560    -3.6840   -41.6610 H      2452  TIP2302     0.2052
 26269 OH2         28.6000     1.5800   -28.9340 O.3    2453  TIP2303    -0.4105
 26270 H1          29.0970     0.9100   -28.4640 H      2453  TIP2303     0.2052
 26271 H2          28.6490     1.3150   -29.8530 H      2453  TIP2303     0.2052
 26272 OH2          6.0310     7.0710    44.9180 O.3    2454  TIP2304    -0.4105
 26273 H1           6.2350     6.5850    44.1200 H      2454  TIP2304     0.2052
 26274 H2           5.1370     6.8080    45.1380 H      2454  TIP2304     0.2052
 26275 OH2         24.0820    29.2140   -52.7890 O.3    2455  TIP2305    -0.4105
 26276 H1          23.6820    29.4510   -53.6260 H      2455  TIP2305     0.2052
 26277 H2          23.5160    29.6150   -52.1300 H      2455  TIP2305     0.2052
 26278 OH2         -6.3870    29.1980    21.3740 O.3    2456  TIP2306    -0.4105
 26279 H1          -6.9070    29.1960    22.1780 H      2456  TIP2306     0.2052
 26280 H2          -5.7380    29.8880    21.5090 H      2456  TIP2306     0.2052
 26281 OH2         11.3280     2.2150    33.9780 O.3    2457  TIP2307    -0.4105
 26282 H1          10.9300     2.9470    33.5060 H      2457  TIP2307     0.2052
 26283 H2          11.6810     2.6070    34.7760 H      2457  TIP2307     0.2052
 26284 OH2         25.4460    -1.8290   -15.2330 O.3    2458  TIP2308    -0.4105
 26285 H1          25.5510    -0.8770   -15.2210 H      2458  TIP2308     0.2052
 26286 H2          25.3930    -2.0750   -14.3090 H      2458  TIP2308     0.2052
 26287 OH2        -26.6480    -8.0380    29.6150 O.3    2459  TIP2309    -0.4105
 26288 H1         -25.8370    -8.5360    29.5100 H      2459  TIP2309     0.2052
 26289 H2         -27.1240    -8.1810    28.7970 H      2459  TIP2309     0.2052
 26290 OH2        -12.6090    21.5090    46.0430 O.3    2460  TIP2310    -0.4105
 26291 H1         -12.2490    22.2370    45.5370 H      2460  TIP2310     0.2052
 26292 H2         -11.9080    21.2690    46.6490 H      2460  TIP2310     0.2052
 26293 OH2         11.2380   -16.5550    30.8690 O.3    2461  TIP2311    -0.4105
 26294 H1          11.0260   -16.9670    31.7070 H      2461  TIP2311     0.2052
 26295 H2          10.9810   -15.6390    30.9810 H      2461  TIP2311     0.2052
 26296 OH2        -23.3380   -25.4770    36.0920 O.3    2462  TIP2312    -0.4105
 26297 H1         -23.8430   -25.2390    36.8690 H      2462  TIP2312     0.2052
 26298 H2         -23.9590   -25.9460    35.5360 H      2462  TIP2312     0.2052
 26299 OH2        -14.3990   -21.2650   -25.6540 O.3    2463  TIP2313    -0.4105
 26300 H1         -13.7830   -21.9660   -25.4430 H      2463  TIP2313     0.2052
 26301 H2         -14.6940   -21.4640   -26.5420 H      2463  TIP2313     0.2052
 26302 OH2        -13.7550    -8.1510   -37.5620 O.3    2464  TIP2314    -0.4105
 26303 H1         -14.1600    -8.6390   -38.2790 H      2464  TIP2314     0.2052
 26304 H2         -14.3520    -8.2720   -36.8230 H      2464  TIP2314     0.2052
 26305 OH2        -24.3620   -21.3160    53.7560 O.3    2465  TIP2315    -0.4105
 26306 H1         -24.7560   -22.0690    53.3170 H      2465  TIP2315     0.2052
 26307 H2         -23.4200   -21.4370    53.6410 H      2465  TIP2315     0.2052
 26308 OH2         23.3040    12.8790    46.9220 O.3    2466  TIP2316    -0.4105
 26309 H1          22.5050    12.9560    47.4440 H      2466  TIP2316     0.2052
 26310 H2          23.8740    12.3080    47.4380 H      2466  TIP2316     0.2052
 26311 OH2         22.5200    15.0460   -23.7620 O.3    2467  TIP2317    -0.4105
 26312 H1          21.6350    14.7000   -23.6470 H      2467  TIP2317     0.2052
 26313 H2          22.4360    15.6900   -24.4650 H      2467  TIP2317     0.2052
 26314 OH2        -31.9140    23.3490   -30.0930 O.3    2468  TIP2318    -0.4105
 26315 H1         -31.3270    23.9460   -29.6290 H      2468  TIP2318     0.2052
 26316 H2         -32.5900    23.1300   -29.4520 H      2468  TIP2318     0.2052
 26317 OH2         21.0970    -2.0100   -41.2000 O.3    2469  TIP2319    -0.4105
 26318 H1          20.9780    -2.0580   -42.1480 H      2469  TIP2319     0.2052
 26319 H2          21.9750    -2.3590   -41.0490 H      2469  TIP2319     0.2052
 26320 OH2         11.9550    -9.0810    -8.0450 O.3    2470  TIP2320    -0.4105
 26321 H1          12.2920    -8.6190    -7.2770 H      2470  TIP2320     0.2052
 26322 H2          11.1610    -9.5160    -7.7340 H      2470  TIP2320     0.2052
 26323 OH2         -0.5560   -31.9380   -49.8400 O.3    2471  TIP2321    -0.4105
 26324 H1          -1.1830   -32.6190   -50.0840 H      2471  TIP2321     0.2052
 26325 H2          -0.3570   -31.4900   -50.6620 H      2471  TIP2321     0.2052
 26326 OH2         14.2720     0.5030   -10.1580 O.3    2472  TIP2322    -0.4105
 26327 H1          14.9030     0.6330    -9.4500 H      2472  TIP2322     0.2052
 26328 H2          14.2250    -0.4470   -10.2650 H      2472  TIP2322     0.2052
 26329 OH2          1.1860   -32.7060    27.5910 O.3    2473  TIP2323    -0.4105
 26330 H1           1.1970   -32.2860    28.4510 H      2473  TIP2323     0.2052
 26331 H2           0.9070   -33.6040    27.7660 H      2473  TIP2323     0.2052
 26332 OH2         13.6980    -3.7240    29.0260 O.3    2474  TIP2324    -0.4105
 26333 H1          14.3760    -3.9550    28.3910 H      2474  TIP2324     0.2052
 26334 H2          14.1790    -3.5440    29.8340 H      2474  TIP2324     0.2052
 26335 OH2        -13.8310   -10.8960   -39.5450 O.3    2475  TIP2325    -0.4105
 26336 H1         -14.7340   -10.9410   -39.2320 H      2475  TIP2325     0.2052
 26337 H2         -13.3000   -10.9130   -38.7480 H      2475  TIP2325     0.2052
 26338 OH2        -24.2280   -29.0160    42.6590 O.3    2476  TIP2326    -0.4105
 26339 H1         -24.4630   -28.1280    42.9260 H      2476  TIP2326     0.2052
 26340 H2         -24.9140   -29.2710    42.0430 H      2476  TIP2326     0.2052
 26341 OH2        -10.7740    31.9510   -18.1140 O.3    2477  TIP2327    -0.4105
 26342 H1         -10.7490    31.0210   -18.3380 H      2477  TIP2327     0.2052
 26343 H2          -9.9150    32.2830   -18.3730 H      2477  TIP2327     0.2052
 26344 OH2          3.5190    20.1880   -50.5580 O.3    2478  TIP2328    -0.4105
 26345 H1           2.7470    20.3970   -51.0840 H      2478  TIP2328     0.2052
 26346 H2           3.2530    19.4370   -50.0280 H      2478  TIP2328     0.2052
 26347 OH2        -28.5530    30.2050    43.8040 O.3    2479  TIP2329    -0.4105
 26348 H1         -28.8300    30.4190    42.9130 H      2479  TIP2329     0.2052
 26349 H2         -27.7380    30.6920    43.9260 H      2479  TIP2329     0.2052
 26350 OH2        -32.7640    -5.7600    16.1020 O.3    2480  TIP2330    -0.4105
 26351 H1         -33.1350    -5.2690    16.8350 H      2480  TIP2330     0.2052
 26352 H2         -33.4370    -6.4040    15.8800 H      2480  TIP2330     0.2052
 26353 OH2         -3.5080   -16.6070   -28.9400 O.3    2481  TIP2331    -0.4105
 26354 H1          -4.3480   -16.1530   -28.8760 H      2481  TIP2331     0.2052
 26355 H2          -3.3690   -16.7240   -29.8800 H      2481  TIP2331     0.2052
 26356 OH2         22.2010   -22.6220    50.7670 O.3    2482  TIP2332    -0.4105
 26357 H1          22.7520   -21.8580    50.5950 H      2482  TIP2332     0.2052
 26358 H2          21.4590   -22.5230    50.1700 H      2482  TIP2332     0.2052
 26359 OH2         18.4080    12.9970    51.7730 O.3    2483  TIP2333    -0.4105
 26360 H1          17.5490    13.2690    51.4490 H      2483  TIP2333     0.2052
 26361 H2          18.3400    12.0470    51.8660 H      2483  TIP2333     0.2052
 26362 OH2        -12.8140     4.2830   -23.2580 O.3    2484  TIP2334    -0.4105
 26363 H1         -12.2700     3.4970   -23.2070 H      2484  TIP2334     0.2052
 26364 H2         -12.8790     4.4700   -24.1950 H      2484  TIP2334     0.2052
 26365 OH2         19.1840    33.0030   -43.2920 O.3    2485  TIP2335    -0.4105
 26366 H1          19.5330    32.2590   -43.7840 H      2485  TIP2335     0.2052
 26367 H2          19.0480    32.6630   -42.4070 H      2485  TIP2335     0.2052
 26368 OH2        -21.1980    11.3340    26.3430 O.3    2486  TIP2336    -0.4105
 26369 H1         -21.9660    11.8280    26.6300 H      2486  TIP2336     0.2052
 26370 H2         -20.8240    10.9810    27.1500 H      2486  TIP2336     0.2052
 26371 OH2          8.0600     6.9800    23.3690 O.3    2487  TIP2337    -0.4105
 26372 H1           8.8340     6.5960    22.9580 H      2487  TIP2337     0.2052
 26373 H2           7.9900     7.8520    22.9810 H      2487  TIP2337     0.2052
 26374 OH2        -16.7540    14.6000   -48.7720 O.3    2488  TIP2338    -0.4105
 26375 H1         -17.5420    14.5120   -48.2360 H      2488  TIP2338     0.2052
 26376 H2         -16.7840    13.8510   -49.3680 H      2488  TIP2338     0.2052
 26377 OH2         22.6060    -7.9510    42.2430 O.3    2489  TIP2339    -0.4105
 26378 H1          22.4400    -8.5020    43.0070 H      2489  TIP2339     0.2052
 26379 H2          23.0660    -7.1880    42.5930 H      2489  TIP2339     0.2052
 26380 OH2         -3.1240    23.5050    50.2980 O.3    2490  TIP2340    -0.4105
 26381 H1          -3.5530    24.2640    49.9040 H      2490  TIP2340     0.2052
 26382 H2          -3.7520    23.1840    50.9460 H      2490  TIP2340     0.2052
 26383 OH2         -4.3330     7.1740   -15.4030 O.3    2491  TIP2341    -0.4105
 26384 H1          -4.4340     8.0660   -15.7360 H      2491  TIP2341     0.2052
 26385 H2          -5.0400     6.6810   -15.8200 H      2491  TIP2341     0.2052
 26386 OH2        -24.3640     8.9400    41.7010 O.3    2492  TIP2342    -0.4105
 26387 H1         -23.6250     8.6790    42.2510 H      2492  TIP2342     0.2052
 26388 H2         -23.9800     9.5170    41.0410 H      2492  TIP2342     0.2052
 26389 OH2         -6.9110   -20.3380   -39.2610 O.3    2493  TIP2343    -0.4105
 26390 H1          -6.7150   -20.4470   -40.1910 H      2493  TIP2343     0.2052
 26391 H2          -6.6160   -19.4510   -39.0550 H      2493  TIP2343     0.2052
 26392 OH2          4.6760    -9.8470   -42.9250 O.3    2494  TIP2344    -0.4105
 26393 H1           5.4460    -9.3250   -42.6990 H      2494  TIP2344     0.2052
 26394 H2           5.0000   -10.7470   -42.9670 H      2494  TIP2344     0.2052
 26395 OH2          7.2490    10.1900    32.4940 O.3    2495  TIP2345    -0.4105
 26396 H1           7.5280     9.2800    32.5950 H      2495  TIP2345     0.2052
 26397 H2           7.9740    10.6140    32.0360 H      2495  TIP2345     0.2052
 26398 OH2        -24.6210    23.9070   -36.4590 O.3    2496  TIP2346    -0.4105
 26399 H1         -24.2720    24.7410   -36.1460 H      2496  TIP2346     0.2052
 26400 H2         -24.6410    23.3480   -35.6820 H      2496  TIP2346     0.2052
 26401 OH2         32.7550   -12.7070    33.1800 O.3    2497  TIP2347    -0.4105
 26402 H1          31.9600   -12.2560    33.4620 H      2497  TIP2347     0.2052
 26403 H2          32.4570   -13.3240    32.5120 H      2497  TIP2347     0.2052
 26404 OH2         31.0420   -24.0880    31.1510 O.3    2498  TIP2348    -0.4105
 26405 H1          30.2070   -24.5110    30.9500 H      2498  TIP2348     0.2052
 26406 H2          31.6890   -24.7900    31.0830 H      2498  TIP2348     0.2052
 26407 OH2         14.2240   -32.0580   -54.9840 O.3    2499  TIP2349    -0.4105
 26408 H1          13.8330   -32.6580   -54.3490 H      2499  TIP2349     0.2052
 26409 H2          13.7450   -32.2210   -55.7960 H      2499  TIP2349     0.2052
 26410 OH2        -25.3150     2.7850   -48.0470 O.3    2500  TIP2350    -0.4105
 26411 H1         -25.4910     2.0150   -47.5070 H      2500  TIP2350     0.2052
 26412 H2         -25.4780     2.4910   -48.9440 H      2500  TIP2350     0.2052
 26413 OH2        -25.1630   -26.9980    49.6910 O.3    2501  TIP2351    -0.4105
 26414 H1         -25.0030   -27.8660    49.3210 H      2501  TIP2351     0.2052
 26415 H2         -24.5740   -26.9460    50.4430 H      2501  TIP2351     0.2052
 26416 OH2        -29.2800    22.9460    17.0150 O.3    2502  TIP2352    -0.4105
 26417 H1         -29.6910    22.3860    17.6740 H      2502  TIP2352     0.2052
 26418 H2         -28.9910    22.3410    16.3320 H      2502  TIP2352     0.2052
 26419 OH2        -23.8110    -4.2490   -51.0760 O.3    2503  TIP2353    -0.4105
 26420 H1         -24.0930    -4.2310   -51.9910 H      2503  TIP2353     0.2052
 26421 H2         -24.6040    -4.4680   -50.5860 H      2503  TIP2353     0.2052
 26422 OH2         12.3560   -28.4170   -24.3210 O.3    2504  TIP2354    -0.4105
 26423 H1          12.1620   -29.1330   -23.7160 H      2504  TIP2354     0.2052
 26424 H2          12.1670   -27.6220   -23.8220 H      2504  TIP2354     0.2052
 26425 OH2          1.2380   -11.1610   -19.9340 O.3    2505  TIP2355    -0.4105
 26426 H1           1.6510   -10.3000   -19.8690 H      2505  TIP2355     0.2052
 26427 H2           0.8710   -11.3180   -19.0640 H      2505  TIP2355     0.2052
 26428 OH2         10.9800    -9.3800   -23.9480 O.3    2506  TIP2356    -0.4105
 26429 H1          10.2110    -9.2790   -24.5100 H      2506  TIP2356     0.2052
 26430 H2          10.9930    -8.5860   -23.4150 H      2506  TIP2356     0.2052
 26431 OH2        -11.1470    17.3070    48.8840 O.3    2507  TIP2357    -0.4105
 26432 H1         -10.6250    16.9980    49.6250 H      2507  TIP2357     0.2052
 26433 H2         -11.7880    17.9010    49.2740 H      2507  TIP2357     0.2052
 26434 OH2         23.2640   -21.3690    22.4760 O.3    2508  TIP2358    -0.4105
 26435 H1          23.2800   -22.2880    22.7420 H      2508  TIP2358     0.2052
 26436 H2          22.5720   -20.9770    23.0080 H      2508  TIP2358     0.2052
 26437 OH2         18.8760   -23.9530    48.8390 O.3    2509  TIP2359    -0.4105
 26438 H1          19.3860   -23.1610    49.0110 H      2509  TIP2359     0.2052
 26439 H2          18.1270   -23.6490    48.3270 H      2509  TIP2359     0.2052
 26440 OH2         12.6740   -11.4360   -24.6610 O.3    2510  TIP2360    -0.4105
 26441 H1          12.3070   -12.0780   -24.0540 H      2510  TIP2360     0.2052
 26442 H2          12.1680   -10.6390   -24.5030 H      2510  TIP2360     0.2052
 26443 OH2         13.5150    13.3610   -35.6490 O.3    2511  TIP2361    -0.4105
 26444 H1          13.2280    12.5970   -35.1490 H      2511  TIP2361     0.2052
 26445 H2          12.7900    13.9820   -35.5760 H      2511  TIP2361     0.2052
 26446 OH2         14.9850   -18.2870    54.5110 O.3    2512  TIP2362    -0.4105
 26447 H1          14.6220   -18.5380    53.6620 H      2512  TIP2362     0.2052
 26448 H2          15.6350   -17.6150    54.3050 H      2512  TIP2362     0.2052
 26449 OH2        -23.0630    11.5760   -40.4130 O.3    2513  TIP2363    -0.4105
 26450 H1         -23.1400    11.7950   -39.4850 H      2513  TIP2363     0.2052
 26451 H2         -23.2500    12.3970   -40.8690 H      2513  TIP2363     0.2052
 26452 OH2        -10.4220    20.0220    35.6860 O.3    2514  TIP2364    -0.4105
 26453 H1         -11.0690    20.7230    35.7670 H      2514  TIP2364     0.2052
 26454 H2          -9.8770    20.1050    36.4680 H      2514  TIP2364     0.2052
 26455 OH2        -26.3260    -4.1870   -26.1100 O.3    2515  TIP2365    -0.4105
 26456 H1         -26.2930    -4.6580   -25.2780 H      2515  TIP2365     0.2052
 26457 H2         -25.4280    -3.8880   -26.2530 H      2515  TIP2365     0.2052
 26458 OH2          6.6750   -27.4840   -39.6540 O.3    2516  TIP2366    -0.4105
 26459 H1           5.8660   -27.9890   -39.5680 H      2516  TIP2366     0.2052
 26460 H2           7.3200   -28.1160   -39.9700 H      2516  TIP2366     0.2052
 26461 OH2         21.3330     3.1380   -22.8570 O.3    2517  TIP2367    -0.4105
 26462 H1          22.1760     3.1080   -23.3090 H      2517  TIP2367     0.2052
 26463 H2          21.0730     4.0590   -22.8970 H      2517  TIP2367     0.2052
 26464 OH2        -29.3490    -4.5190    44.4380 O.3    2518  TIP2368    -0.4105
 26465 H1         -29.3410    -3.7370    44.9910 H      2518  TIP2368     0.2052
 26466 H2         -29.4240    -5.2480    45.0530 H      2518  TIP2368     0.2052
 26467 OH2        -25.9090   -25.7050   -55.5100 O.3    2519  TIP2369    -0.4105
 26468 H1         -26.2020   -24.8080   -55.6700 H      2519  TIP2369     0.2052
 26469 H2         -26.6870   -26.1580   -55.1870 H      2519  TIP2369     0.2052
 26470 OH2         21.5140   -19.4260   -43.5940 O.3    2520  TIP2370    -0.4105
 26471 H1          21.5140   -20.0370   -42.8570 H      2520  TIP2370     0.2052
 26472 H2          22.4400   -19.2790   -43.7840 H      2520  TIP2370     0.2052
 26473 OH2          1.7350   -19.7300    31.6340 O.3    2521  TIP2371    -0.4105
 26474 H1           2.2450   -20.5020    31.8810 H      2521  TIP2371     0.2052
 26475 H2           2.1920   -19.3750    30.8720 H      2521  TIP2371     0.2052
 26476 OH2        -25.8910    20.7880    53.8090 O.3    2522  TIP2372    -0.4105
 26477 H1         -25.1570    20.6830    54.4140 H      2522  TIP2372     0.2052
 26478 H2         -25.7050    20.1750    53.0980 H      2522  TIP2372     0.2052
 26479 OH2        -11.9680     2.0870    37.1460 O.3    2523  TIP2373    -0.4105
 26480 H1         -11.6510     1.4630    36.4930 H      2523  TIP2373     0.2052
 26481 H2         -11.9160     1.6120    37.9760 H      2523  TIP2373     0.2052
 26482 OH2         23.8010   -14.0230   -47.7240 O.3    2524  TIP2374    -0.4105
 26483 H1          23.7620   -14.9410   -47.4530 H      2524  TIP2374     0.2052
 26484 H2          23.7780   -13.5300   -46.9040 H      2524  TIP2374     0.2052
 26485 OH2        -17.4440     6.9960   -54.9710 O.3    2525  TIP2375    -0.4105
 26486 H1         -17.2130     6.6250   -54.1200 H      2525  TIP2375     0.2052
 26487 H2         -18.3490     6.7200   -55.1160 H      2525  TIP2375     0.2052
 26488 OH2        -21.8300     2.1580   -40.5240 O.3    2526  TIP2376    -0.4105
 26489 H1         -21.4370     2.3660   -41.3720 H      2526  TIP2376     0.2052
 26490 H2         -21.6970     2.9470   -39.9980 H      2526  TIP2376     0.2052
 26491 OH2          3.5150   -26.5300   -26.3580 O.3    2527  TIP2377    -0.4105
 26492 H1           3.4260   -27.4130   -25.9990 H      2527  TIP2377     0.2052
 26493 H2           4.0230   -26.6480   -27.1610 H      2527  TIP2377     0.2052
 26494 OH2         31.7510   -15.4740    50.9790 O.3    2528  TIP2378    -0.4105
 26495 H1          32.4420   -15.1120    51.5340 H      2528  TIP2378     0.2052
 26496 H2          32.2060   -15.7720    50.1920 H      2528  TIP2378     0.2052
 26497 OH2         22.3260    23.7370    41.2800 O.3    2529  TIP2379    -0.4105
 26498 H1          22.5360    24.4530    40.6790 H      2529  TIP2379     0.2052
 26499 H2          21.4360    23.9260    41.5770 H      2529  TIP2379     0.2052
 26500 OH2         25.2610   -18.4430    24.8180 O.3    2530  TIP2380    -0.4105
 26501 H1          26.1300   -18.0480    24.7470 H      2530  TIP2380     0.2052
 26502 H2          24.9930   -18.5960    23.9120 H      2530  TIP2380     0.2052
 26503 OH2        -31.6430    -4.9850   -40.0690 O.3    2531  TIP2381    -0.4105
 26504 H1         -30.8870    -4.5560   -40.4690 H      2531  TIP2381     0.2052
 26505 H2         -32.3820    -4.4140   -40.2790 H      2531  TIP2381     0.2052
 26506 OH2          0.5550   -14.3710    42.8200 O.3    2532  TIP2382    -0.4105
 26507 H1           0.2290   -13.5790    42.3940 H      2532  TIP2382     0.2052
 26508 H2          -0.2320   -14.8760    43.0240 H      2532  TIP2382     0.2052
 26509 OH2         -1.0270    19.7110    43.6710 O.3    2533  TIP2383    -0.4105
 26510 H1          -0.2470    20.0150    43.2070 H      2533  TIP2383     0.2052
 26511 H2          -1.7150    19.7060    43.0060 H      2533  TIP2383     0.2052
 26512 OH2        -27.7600   -20.9830   -27.5430 O.3    2534  TIP2384    -0.4105
 26513 H1         -27.5730   -20.5580   -28.3800 H      2534  TIP2384     0.2052
 26514 H2         -28.3470   -20.3750   -27.0910 H      2534  TIP2384     0.2052
 26515 OH2          2.0960    15.7960    42.4760 O.3    2535  TIP2385    -0.4105
 26516 H1           2.7050    16.4860    42.7410 H      2535  TIP2385     0.2052
 26517 H2           1.6970    16.1260    41.6710 H      2535  TIP2385     0.2052
 26518 OH2          1.2110    -6.0890    26.3410 O.3    2536  TIP2386    -0.4105
 26519 H1           1.0430    -5.2690    25.8770 H      2536  TIP2386     0.2052
 26520 H2           1.9970    -5.9160    26.8580 H      2536  TIP2386     0.2052
 26521 OH2          0.6110   -21.7470   -53.5340 O.3    2537  TIP2387    -0.4105
 26522 H1           1.2720   -22.2450   -53.0520 H      2537  TIP2387     0.2052
 26523 H2          -0.2240   -22.1050   -53.2340 H      2537  TIP2387     0.2052
 26524 OH2          0.3540    23.8330   -29.7100 O.3    2538  TIP2388    -0.4105
 26525 H1           0.5280    23.3230   -30.5010 H      2538  TIP2388     0.2052
 26526 H2           0.9660    23.4860   -29.0610 H      2538  TIP2388     0.2052
 26527 OH2        -18.7300    10.0070   -55.1560 O.3    2539  TIP2389    -0.4105
 26528 H1         -19.6190    10.3300   -55.3050 H      2539  TIP2389     0.2052
 26529 H2         -18.5010     9.5540   -55.9680 H      2539  TIP2389     0.2052
 26530 OH2        -15.6810     7.6760   -46.8840 O.3    2540  TIP2390    -0.4105
 26531 H1         -14.7240     7.6860   -46.9100 H      2540  TIP2390     0.2052
 26532 H2         -15.9470     8.1590   -47.6670 H      2540  TIP2390     0.2052
 26533 OH2        -24.0200   -14.1620    28.0010 O.3    2541  TIP2391    -0.4105
 26534 H1         -24.9560   -14.3520    28.0560 H      2541  TIP2391     0.2052
 26535 H2         -23.6990   -14.7330    27.3020 H      2541  TIP2391     0.2052
 26536 OH2         -9.6320     8.7480   -49.0460 O.3    2542  TIP2392    -0.4105
 26537 H1          -9.8600     9.6610   -48.8690 H      2542  TIP2392     0.2052
 26538 H2          -9.1730     8.4590   -48.2570 H      2542  TIP2392     0.2052
 26539 OH2         22.3670   -31.9340   -20.0330 O.3    2543  TIP2393    -0.4105
 26540 H1          21.9180   -31.6960   -19.2230 H      2543  TIP2393     0.2052
 26541 H2          22.1130   -32.8440   -20.1900 H      2543  TIP2393     0.2052
 26542 OH2         15.8690     1.9230    19.4950 O.3    2544  TIP2394    -0.4105
 26543 H1          15.1260     1.3790    19.2330 H      2544  TIP2394     0.2052
 26544 H2          15.6170     2.8110    19.2420 H      2544  TIP2394     0.2052
 26545 OH2         19.0840    -1.0650   -21.0550 O.3    2545  TIP2395    -0.4105
 26546 H1          18.1930    -1.2530   -20.7590 H      2545  TIP2395     0.2052
 26547 H2          19.0690    -0.1360   -21.2850 H      2545  TIP2395     0.2052
 26548 OH2        -32.6780    23.0450    36.2170 O.3    2546  TIP2396    -0.4105
 26549 H1         -31.8180    23.0740    36.6380 H      2546  TIP2396     0.2052
 26550 H2         -32.9470    22.1290    36.2840 H      2546  TIP2396     0.2052
 26551 OH2        -23.5270   -12.5230   -49.4600 O.3    2547  TIP2397    -0.4105
 26552 H1         -22.9760   -13.0930   -48.9230 H      2547  TIP2397     0.2052
 26553 H2         -22.9080   -12.0070   -49.9760 H      2547  TIP2397     0.2052
 26554 OH2         -8.2070    10.4140   -25.3680 O.3    2548  TIP2398    -0.4105
 26555 H1          -8.7970    11.1490   -25.2010 H      2548  TIP2398     0.2052
 26556 H2          -8.7750     9.6430   -25.3570 H      2548  TIP2398     0.2052
 26557 OH2          9.5790     2.4190    49.7660 O.3    2549  TIP2399    -0.4105
 26558 H1           9.6740     2.2980    50.7110 H      2549  TIP2399     0.2052
 26559 H2          10.4060     2.1070    49.4000 H      2549  TIP2399     0.2052
 26560 OH2          1.5990    -1.3190    51.9150 O.3    2550  TIP2400    -0.4105
 26561 H1           2.4440    -1.1890    52.3450 H      2550  TIP2400     0.2052
 26562 H2           1.0950    -0.5360    52.1350 H      2550  TIP2400     0.2052
 26563 OH2         26.7140    11.5530    35.0750 O.3    2551  TIP2401    -0.4105
 26564 H1          26.6990    10.9840    34.3050 H      2551  TIP2401     0.2052
 26565 H2          25.8050    11.8310    35.1860 H      2551  TIP2401     0.2052
 26566 OH2         18.4510    -6.1980    22.8290 O.3    2552  TIP2402    -0.4105
 26567 H1          18.5100    -5.4930    22.1840 H      2552  TIP2402     0.2052
 26568 H2          17.7040    -6.7230    22.5430 H      2552  TIP2402     0.2052
 26569 OH2         -4.9790    -7.4260   -10.9130 O.3    2553  TIP2403    -0.4105
 26570 H1          -4.3280    -7.9010   -11.4290 H      2553  TIP2403     0.2052
 26571 H2          -4.4690    -6.9770   -10.2390 H      2553  TIP2403     0.2052
 26572 OH2         25.9650    -7.8000    14.3010 O.3    2554  TIP2404    -0.4105
 26573 H1          25.4350    -8.2250    14.9750 H      2554  TIP2404     0.2052
 26574 H2          26.5580    -8.4860    13.9940 H      2554  TIP2404     0.2052
 26575 OH2        -16.8220    23.5850    45.6810 O.3    2555  TIP2405    -0.4105
 26576 H1         -17.4090    23.3440    46.3980 H      2555  TIP2405     0.2052
 26577 H2         -15.9430    23.4880    46.0470 H      2555  TIP2405     0.2052
 26578 OH2          1.0320   -12.8350    53.6290 O.3    2556  TIP2406    -0.4105
 26579 H1           1.5900   -12.1200    53.3230 H      2556  TIP2406     0.2052
 26580 H2           1.6120   -13.5950    53.6630 H      2556  TIP2406     0.2052
 26581 OH2        -19.5950   -15.3810   -50.1540 O.3    2557  TIP2407    -0.4105
 26582 H1         -19.5010   -16.3270   -50.0480 H      2557  TIP2407     0.2052
 26583 H2         -20.1640   -15.2790   -50.9170 H      2557  TIP2407     0.2052
 26584 OH2         30.2860    11.9280   -39.3530 O.3    2558  TIP2408    -0.4105
 26585 H1          31.1660    11.5570   -39.4180 H      2558  TIP2408     0.2052
 26586 H2          29.9180    11.8290   -40.2310 H      2558  TIP2408     0.2052
 26587 OH2          8.1150    25.7330    35.7970 O.3    2559  TIP2409    -0.4105
 26588 H1           9.0350    25.9950    35.8170 H      2559  TIP2409     0.2052
 26589 H2           7.7170    26.3050    35.1410 H      2559  TIP2409     0.2052
 26590 OH2        -23.7700     1.3620    22.3900 O.3    2560  TIP2410    -0.4105
 26591 H1         -24.6520     1.6850    22.2050 H      2560  TIP2410     0.2052
 26592 H2         -23.9090     0.5250    22.8320 H      2560  TIP2410     0.2052
 26593 OH2         -3.7310   -16.6010   -39.3710 O.3    2561  TIP2411    -0.4105
 26594 H1          -3.3140   -16.9390   -38.5790 H      2561  TIP2411     0.2052
 26595 H2          -3.5070   -15.6710   -39.3820 H      2561  TIP2411     0.2052
 26596 OH2        -20.0550    -8.1420   -41.1370 O.3    2562  TIP2412    -0.4105
 26597 H1         -21.0110    -8.0930   -41.1410 H      2562  TIP2412     0.2052
 26598 H2         -19.7680    -7.2490   -41.3270 H      2562  TIP2412     0.2052
 26599 OH2         -5.2090   -32.7750   -55.0740 O.3    2563  TIP2413    -0.4105
 26600 H1          -5.5080   -33.1330   -54.2380 H      2563  TIP2413     0.2052
 26601 H2          -5.9710   -32.3140   -55.4240 H      2563  TIP2413     0.2052
 26602 OH2         -3.9090    10.4460    53.2970 O.3    2564  TIP2414    -0.4105
 26603 H1          -3.8340     9.6480    53.8200 H      2564  TIP2414     0.2052
 26604 H2          -4.6500    10.9150    53.6790 H      2564  TIP2414     0.2052
 26605 OH2         26.9150   -10.7560   -47.1590 O.3    2565  TIP2415    -0.4105
 26606 H1          26.6780    -9.8390   -47.2990 H      2565  TIP2415     0.2052
 26607 H2          26.7130   -10.9180   -46.2370 H      2565  TIP2415     0.2052
 26608 OH2        -15.9920     8.2190   -30.1210 O.3    2566  TIP2416    -0.4105
 26609 H1         -15.8970     8.0010   -31.0480 H      2566  TIP2416     0.2052
 26610 H2         -15.1860     7.9010   -29.7160 H      2566  TIP2416     0.2052
 26611 OH2          6.0030     7.3900    33.5710 O.3    2567  TIP2417    -0.4105
 26612 H1           5.2560     6.8050    33.4390 H      2567  TIP2417     0.2052
 26613 H2           6.6150     7.1590    32.8730 H      2567  TIP2417     0.2052
 26614 OH2        -25.2480    24.4670   -24.2700 O.3    2568  TIP2418    -0.4105
 26615 H1         -25.5440    25.3770   -24.2960 H      2568  TIP2418     0.2052
 26616 H2         -25.6240    24.1140   -23.4640 H      2568  TIP2418     0.2052
 26617 OH2         21.4690     3.1970   -51.9190 O.3    2569  TIP2419    -0.4105
 26618 H1          20.6060     3.5340   -52.1600 H      2569  TIP2419     0.2052
 26619 H2          21.3460     2.2500   -51.8500 H      2569  TIP2419     0.2052
 26620 OH2         -1.4780   -28.1350   -43.1060 O.3    2570  TIP2420    -0.4105
 26621 H1          -1.9870   -28.9250   -43.2860 H      2570  TIP2420     0.2052
 26622 H2          -2.1340   -27.4600   -42.9330 H      2570  TIP2420     0.2052
 26623 OH2          2.9380   -25.8250    31.8990 O.3    2571  TIP2421    -0.4105
 26624 H1           3.2510   -26.0080    31.0130 H      2571  TIP2421     0.2052
 26625 H2           2.1400   -25.3120    31.7700 H      2571  TIP2421     0.2052
 26626 OH2        -30.7980    16.1070   -50.5100 O.3    2572  TIP2422    -0.4105
 26627 H1         -30.8880    15.9930   -51.4560 H      2572  TIP2422     0.2052
 26628 H2         -29.9620    15.6920   -50.2970 H      2572  TIP2422     0.2052
 26629 OH2         -5.5710   -15.6000    50.6080 O.3    2573  TIP2423    -0.4105
 26630 H1          -5.1790   -16.4620    50.4670 H      2573  TIP2423     0.2052
 26631 H2          -5.0180   -15.0000    50.1080 H      2573  TIP2423     0.2052
 26632 OH2        -14.4480    20.2660    48.5310 O.3    2574  TIP2424    -0.4105
 26633 H1         -14.7370    20.6130    47.6870 H      2574  TIP2424     0.2052
 26634 H2         -15.2530    20.1670    49.0380 H      2574  TIP2424     0.2052
 26635 OH2        -29.3380   -26.5330    40.2940 O.3    2575  TIP2425    -0.4105
 26636 H1         -29.7270   -26.8450    41.1110 H      2575  TIP2425     0.2052
 26637 H2         -29.0600   -25.6370    40.4870 H      2575  TIP2425     0.2052
 26638 OH2         -6.7910    27.1440   -38.8150 O.3    2576  TIP2426    -0.4105
 26639 H1          -6.8970    26.3070   -38.3630 H      2576  TIP2426     0.2052
 26640 H2          -6.9280    27.8040   -38.1350 H      2576  TIP2426     0.2052
 26641 OH2         11.2170    18.3930    42.0610 O.3    2577  TIP2427    -0.4105
 26642 H1          11.7420    17.6040    41.9260 H      2577  TIP2427     0.2052
 26643 H2          11.3840    18.9280    41.2860 H      2577  TIP2427     0.2052
 26644 OH2         31.8730    13.2560   -41.8830 O.3    2578  TIP2428    -0.4105
 26645 H1          32.1950    13.5000   -41.0160 H      2578  TIP2428     0.2052
 26646 H2          32.2920    13.8770   -42.4780 H      2578  TIP2428     0.2052
 26647 OH2         18.5770    26.1980   -25.6740 O.3    2579  TIP2429    -0.4105
 26648 H1          18.2130    26.5420   -24.8580 H      2579  TIP2429     0.2052
 26649 H2          19.0650    25.4180   -25.4090 H      2579  TIP2429     0.2052
 26650 OH2         -9.5710    28.3820   -27.7880 O.3    2580  TIP2430    -0.4105
 26651 H1         -10.3660    27.9180   -27.5270 H      2580  TIP2430     0.2052
 26652 H2          -9.4320    28.1260   -28.7000 H      2580  TIP2430     0.2052
 26653 OH2        -13.7960     4.1080    37.2640 O.3    2581  TIP2431    -0.4105
 26654 H1         -13.1370     3.4180    37.1920 H      2581  TIP2431     0.2052
 26655 H2         -13.6190     4.6880    36.5230 H      2581  TIP2431     0.2052
 26656 OH2        -32.1750   -19.7950    40.0970 O.3    2582  TIP2432    -0.4105
 26657 H1         -31.8030   -20.0590    40.9390 H      2582  TIP2432     0.2052
 26658 H2         -31.4580   -19.9060    39.4730 H      2582  TIP2432     0.2052
 26659 OH2          0.7550    20.9830    52.7340 O.3    2583  TIP2433    -0.4105
 26660 H1           0.5860    20.0600    52.9210 H      2583  TIP2433     0.2052
 26661 H2           1.0910    21.3370    53.5570 H      2583  TIP2433     0.2052
 26662 OH2         24.3060   -29.8910   -40.0980 O.3    2584  TIP2434    -0.4105
 26663 H1          23.9580   -29.0220   -39.8950 H      2584  TIP2434     0.2052
 26664 H2          24.4300   -30.3040   -39.2430 H      2584  TIP2434     0.2052
 26665 OH2        -19.8750     9.0740   -28.0600 O.3    2585  TIP2435    -0.4105
 26666 H1         -19.9500     8.9360   -29.0040 H      2585  TIP2435     0.2052
 26667 H2         -20.0980     8.2270   -27.6740 H      2585  TIP2435     0.2052
 26668 OH2          7.0360   -31.3600    45.7370 O.3    2586  TIP2436    -0.4105
 26669 H1           7.7110   -31.9560    45.4120 H      2586  TIP2436     0.2052
 26670 H2           6.2110   -31.7620    45.4670 H      2586  TIP2436     0.2052
 26671 OH2         32.7020    -9.6130   -19.1890 O.3    2587  TIP2437    -0.4105
 26672 H1          32.1010    -9.8720   -18.4910 H      2587  TIP2437     0.2052
 26673 H2          33.4130   -10.2520   -19.1440 H      2587  TIP2437     0.2052
 26674 OH2         20.5510     7.4020    55.2750 O.3    2588  TIP2438    -0.4105
 26675 H1          20.0010     8.1420    55.0200 H      2588  TIP2438     0.2052
 26676 H2          21.3530     7.8030    55.6100 H      2588  TIP2438     0.2052
 26677 OH2         28.9510   -21.9980    34.6430 O.3    2589  TIP2439    -0.4105
 26678 H1          28.8620   -22.9050    34.3500 H      2589  TIP2439     0.2052
 26679 H2          28.6610   -21.4750    33.8960 H      2589  TIP2439     0.2052
 26680 OH2        -32.6670    28.9780    28.0090 O.3    2590  TIP2440    -0.4105
 26681 H1         -32.9760    28.1450    28.3650 H      2590  TIP2440     0.2052
 26682 H2         -31.8540    28.7580    27.5550 H      2590  TIP2440     0.2052
 26683 OH2        -26.3460   -17.4610   -33.2830 O.3    2591  TIP2441    -0.4105
 26684 H1         -26.0550   -16.9750   -34.0540 H      2591  TIP2441     0.2052
 26685 H2         -27.2820   -17.2740   -33.2200 H      2591  TIP2441     0.2052
 26686 OH2          3.1470     1.1070   -40.8910 O.3    2592  TIP2442    -0.4105
 26687 H1           3.2960     1.4040   -39.9930 H      2592  TIP2442     0.2052
 26688 H2           2.2260     1.3030   -41.0590 H      2592  TIP2442     0.2052
 26689 OH2         10.7440   -13.0750   -29.7750 O.3    2593  TIP2443    -0.4105
 26690 H1          11.3120   -13.3450   -30.4960 H      2593  TIP2443     0.2052
 26691 H2          11.2150   -12.3560   -29.3540 H      2593  TIP2443     0.2052
 26692 OH2         -6.0380    32.4900    19.9550 O.3    2594  TIP2444    -0.4105
 26693 H1          -5.3360    32.2670    20.5670 H      2594  TIP2444     0.2052
 26694 H2          -5.5890    32.8910    19.2110 H      2594  TIP2444     0.2052
 26695 OH2        -30.5740     7.1870    27.1930 O.3    2595  TIP2445    -0.4105
 26696 H1         -31.4160     6.9280    27.5670 H      2595  TIP2445     0.2052
 26697 H2         -30.7530     8.0180    26.7520 H      2595  TIP2445     0.2052
 26698 OH2        -22.4090   -27.5140   -44.5790 O.3    2596  TIP2446    -0.4105
 26699 H1         -23.2970   -27.2020   -44.7500 H      2596  TIP2446     0.2052
 26700 H2         -22.0520   -26.8870   -43.9490 H      2596  TIP2446     0.2052
 26701 OH2        -15.5270    12.0060   -31.8540 O.3    2597  TIP2447    -0.4105
 26702 H1         -15.7150    11.7000   -30.9670 H      2597  TIP2447     0.2052
 26703 H2         -15.6760    11.2400   -32.4090 H      2597  TIP2447     0.2052
 26704 OH2         -8.7070    23.6400    46.9950 O.3    2598  TIP2448    -0.4105
 26705 H1          -8.4160    22.8060    47.3640 H      2598  TIP2448     0.2052
 26706 H2          -9.0390    24.1320    47.7460 H      2598  TIP2448     0.2052
 26707 OH2        -14.8620    21.4900   -30.2350 O.3    2599  TIP2449    -0.4105
 26708 H1         -15.1260    21.8200   -31.0940 H      2599  TIP2449     0.2052
 26709 H2         -13.9460    21.7530   -30.1480 H      2599  TIP2449     0.2052
 26710 OH2          7.2290   -23.8150   -46.5940 O.3    2600  TIP2450    -0.4105
 26711 H1           6.6680   -23.0730   -46.3680 H      2600  TIP2450     0.2052
 26712 H2           6.9990   -24.0210   -47.5000 H      2600  TIP2450     0.2052
 26713 OH2         12.4440    -4.8690   -43.4410 O.3    2601  TIP2451    -0.4105
 26714 H1          13.3720    -4.7120   -43.2690 H      2601  TIP2451     0.2052
 26715 H2          11.9930    -4.1530   -42.9950 H      2601  TIP2451     0.2052
 26716 OH2        -23.8670    16.3390    36.4180 O.3    2602  TIP2452    -0.4105
 26717 H1         -23.7420    15.4540    36.7620 H      2602  TIP2452     0.2052
 26718 H2         -24.6990    16.2970    35.9470 H      2602  TIP2452     0.2052
 26719 OH2         26.0380     0.3280    44.8370 O.3    2603  TIP2453    -0.4105
 26720 H1          25.5920    -0.1990    45.5000 H      2603  TIP2453     0.2052
 26721 H2          25.7110     1.2170    44.9770 H      2603  TIP2453     0.2052
 26722 OH2         -4.4840    13.2390    46.6290 O.3    2604  TIP2454    -0.4105
 26723 H1          -3.6710    12.7380    46.7030 H      2604  TIP2454     0.2052
 26724 H2          -5.1570    12.5810    46.4550 H      2604  TIP2454     0.2052
 26725 OH2         32.7520    25.9170   -30.9390 O.3    2605  TIP2455    -0.4105
 26726 H1          33.3010    25.1330   -30.9090 H      2605  TIP2455     0.2052
 26727 H2          32.6000    26.0680   -31.8720 H      2605  TIP2455     0.2052
 26728 OH2         -0.3430    10.9500    42.9960 O.3    2606  TIP2456    -0.4105
 26729 H1           0.5170    11.3600    42.9120 H      2606  TIP2456     0.2052
 26730 H2          -0.4320    10.7670    43.9310 H      2606  TIP2456     0.2052
 26731 OH2        -16.8810    31.7910    42.9000 O.3    2607  TIP2457    -0.4105
 26732 H1         -16.0410    32.2470    42.8420 H      2607  TIP2457     0.2052
 26733 H2         -16.9230    31.4790    43.8040 H      2607  TIP2457     0.2052
 26734 OH2        -28.3010     3.3400    36.2830 O.3    2608  TIP2458    -0.4105
 26735 H1         -28.6980     3.4140    35.4150 H      2608  TIP2458     0.2052
 26736 H2         -28.8880     3.8310    36.8580 H      2608  TIP2458     0.2052
 26737 OH2         -3.4770    -6.1400    33.4180 O.3    2609  TIP2459    -0.4105
 26738 H1          -4.4290    -6.2220    33.4700 H      2609  TIP2459     0.2052
 26739 H2          -3.1600    -7.0420    33.3800 H      2609  TIP2459     0.2052
 26740 OH2         -0.7440   -10.7500   -45.8340 O.3    2610  TIP2460    -0.4105
 26741 H1          -0.1970   -11.2380   -45.2180 H      2610  TIP2460     0.2052
 26742 H2          -0.5600    -9.8310   -45.6410 H      2610  TIP2460     0.2052
 26743 OH2         31.6640    24.0960   -37.3030 O.3    2611  TIP2461    -0.4105
 26744 H1          31.9600    24.9140   -36.9040 H      2611  TIP2461     0.2052
 26745 H2          32.4720    23.6380   -37.5370 H      2611  TIP2461     0.2052
 26746 OH2         11.2250     2.9780   -29.3050 O.3    2612  TIP2462    -0.4105
 26747 H1          10.9750     3.2020   -28.4080 H      2612  TIP2462     0.2052
 26748 H2          11.7320     3.7300   -29.6080 H      2612  TIP2462     0.2052
 26749 OH2         13.6000     2.6310    51.1430 O.3    2613  TIP2463    -0.4105
 26750 H1          14.2190     3.1460    50.6260 H      2613  TIP2463     0.2052
 26751 H2          12.9340     2.3530    50.5150 H      2613  TIP2463     0.2052
 26752 OH2        -20.0070     2.2540    35.3360 O.3    2614  TIP2464    -0.4105
 26753 H1         -20.1060     1.3050    35.4120 H      2614  TIP2464     0.2052
 26754 H2         -20.3380     2.4600    34.4610 H      2614  TIP2464     0.2052
 26755 OH2        -15.1090   -32.5000    49.1550 O.3    2615  TIP2465    -0.4105
 26756 H1         -14.8720   -32.1010    48.3180 H      2615  TIP2465     0.2052
 26757 H2         -14.6460   -31.9760    49.8090 H      2615  TIP2465     0.2052
 26758 OH2         10.8960     0.3660   -55.1480 O.3    2616  TIP2466    -0.4105
 26759 H1          11.2950    -0.0740   -54.3970 H      2616  TIP2466     0.2052
 26760 H2          11.5200     0.2340   -55.8620 H      2616  TIP2466     0.2052
 26761 OH2        -13.2190    18.7050    39.0210 O.3    2617  TIP2467    -0.4105
 26762 H1         -13.5710    17.9770    39.5330 H      2617  TIP2467     0.2052
 26763 H2         -13.7740    19.4500    39.2510 H      2617  TIP2467     0.2052
 26764 OH2         16.0150    -3.3170    48.3620 O.3    2618  TIP2468    -0.4105
 26765 H1          15.2760    -2.8840    48.7900 H      2618  TIP2468     0.2052
 26766 H2          16.7670    -2.7580    48.5560 H      2618  TIP2468     0.2052
 26767 OH2         -0.8640    20.0800    19.6570 O.3    2619  TIP2469    -0.4105
 26768 H1          -1.2240    19.2200    19.4400 H      2619  TIP2469     0.2052
 26769 H2          -1.0360    20.6140    18.8820 H      2619  TIP2469     0.2052
 26770 OH2         -4.2410     9.8170    28.0330 O.3    2620  TIP2470    -0.4105
 26771 H1          -4.5600     9.4550    27.2060 H      2620  TIP2470     0.2052
 26772 H2          -4.1530    10.7550    27.8660 H      2620  TIP2470     0.2052
 26773 OH2        -11.7840    19.5840    44.2440 O.3    2621  TIP2471    -0.4105
 26774 H1         -11.2400    19.2430    44.9550 H      2621  TIP2471     0.2052
 26775 H2         -12.6760    19.5510    44.5880 H      2621  TIP2471     0.2052
 26776 OH2         -0.6710    10.1990   -32.3820 O.3    2622  TIP2472    -0.4105
 26777 H1          -1.5730    10.3020   -32.0780 H      2622  TIP2472     0.2052
 26778 H2          -0.1370    10.5610   -31.6740 H      2622  TIP2472     0.2052
 26779 OH2        -14.7790   -12.1150   -19.2270 O.3    2623  TIP2473    -0.4105
 26780 H1         -13.8540   -12.3560   -19.2770 H      2623  TIP2473     0.2052
 26781 H2         -14.7900   -11.1710   -19.3900 H      2623  TIP2473     0.2052
 26782 OH2         30.6120   -18.6650    33.5650 O.3    2624  TIP2474    -0.4105
 26783 H1          31.3100   -18.8200    32.9290 H      2624  TIP2474     0.2052
 26784 H2          30.8490   -17.8390    33.9850 H      2624  TIP2474     0.2052
 26785 OH2        -31.7140    -5.2410   -43.7250 O.3    2625  TIP2475    -0.4105
 26786 H1         -32.0290    -4.3910   -44.0330 H      2625  TIP2475     0.2052
 26787 H2         -31.1770    -5.5730   -44.4450 H      2625  TIP2475     0.2052
 26788 OH2         23.9140   -26.6600   -26.8480 O.3    2626  TIP2476    -0.4105
 26789 H1          23.0440   -27.0190   -27.0230 H      2626  TIP2476     0.2052
 26790 H2          23.8560   -25.7450   -27.1210 H      2626  TIP2476     0.2052
 26791 OH2         20.2750   -19.5350    51.2680 O.3    2627  TIP2477    -0.4105
 26792 H1          19.7220   -19.6360    52.0420 H      2627  TIP2477     0.2052
 26793 H2          21.1560   -19.4050    51.6180 H      2627  TIP2477     0.2052
 26794 OH2         -0.5330    13.2870    47.8100 O.3    2628  TIP2478    -0.4105
 26795 H1          -0.6480    13.4760    46.8780 H      2628  TIP2478     0.2052
 26796 H2          -1.0430    12.4910    47.9590 H      2628  TIP2478     0.2052
 26797 OH2         10.4770   -23.3250    49.9990 O.3    2629  TIP2479    -0.4105
 26798 H1          11.1920   -22.7680    49.6910 H      2629  TIP2479     0.2052
 26799 H2          10.7750   -24.2170    49.8260 H      2629  TIP2479     0.2052
 26800 OH2         22.1310   -29.4480   -28.6830 O.3    2630  TIP2480    -0.4105
 26801 H1          21.4660   -28.7690   -28.5720 H      2630  TIP2480     0.2052
 26802 H2          22.7040   -29.3490   -27.9230 H      2630  TIP2480     0.2052
 26803 OH2          6.3870    25.6170   -48.7140 O.3    2631  TIP2481    -0.4105
 26804 H1           6.3110    26.4130   -49.2400 H      2631  TIP2481     0.2052
 26805 H2           6.1680    25.8950   -47.8250 H      2631  TIP2481     0.2052
 26806 OH2        -26.4700    12.2260    26.4350 O.3    2632  TIP2482    -0.4105
 26807 H1         -27.2900    12.0560    26.8980 H      2632  TIP2482     0.2052
 26808 H2         -26.4380    11.5590    25.7490 H      2632  TIP2482     0.2052
 26809 OH2        -24.8200    21.8280    39.2010 O.3    2633  TIP2483    -0.4105
 26810 H1         -24.6540    20.9350    38.8990 H      2633  TIP2483     0.2052
 26811 H2         -25.4590    21.7270    39.9070 H      2633  TIP2483     0.2052
 26812 OH2         17.8330    17.4250    32.0740 O.3    2634  TIP2484    -0.4105
 26813 H1          17.0450    17.8970    32.3450 H      2634  TIP2484     0.2052
 26814 H2          17.5040    16.6720    31.5840 H      2634  TIP2484     0.2052
 26815 OH2          1.7550     8.6100    43.3590 O.3    2635  TIP2485    -0.4105
 26816 H1           1.3550     8.1090    42.6490 H      2635  TIP2485     0.2052
 26817 H2           1.2050     8.4270    44.1210 H      2635  TIP2485     0.2052
 26818 OH2         -0.9060    13.5270    53.9990 O.3    2636  TIP2486    -0.4105
 26819 H1          -0.1700    13.8300    53.4670 H      2636  TIP2486     0.2052
 26820 H2          -1.5620    13.2450    53.3620 H      2636  TIP2486     0.2052
 26821 OH2        -28.7130    11.8820    38.5960 O.3    2637  TIP2487    -0.4105
 26822 H1         -29.3130    11.4690    39.2180 H      2637  TIP2487     0.2052
 26823 H2         -29.2670    12.4700    38.0820 H      2637  TIP2487     0.2052
 26824 OH2         -2.5050    -7.9510   -18.2700 O.3    2638  TIP2488    -0.4105
 26825 H1          -2.7110    -7.9980   -19.2040 H      2638  TIP2488     0.2052
 26826 H2          -2.5610    -7.0190   -18.0590 H      2638  TIP2488     0.2052
 26827 OH2         -8.0780   -32.4090    52.9460 O.3    2639  TIP2489    -0.4105
 26828 H1          -7.3990   -33.0690    52.8060 H      2639  TIP2489     0.2052
 26829 H2          -8.9010   -32.8730    52.7880 H      2639  TIP2489     0.2052
 26830 OH2         -1.8210    -6.2240    27.1020 O.3    2640  TIP2490    -0.4105
 26831 H1          -1.2390    -5.4970    26.8830 H      2640  TIP2490     0.2052
 26832 H2          -1.7380    -6.8290    26.3650 H      2640  TIP2490     0.2052
 26833 OH2        -14.4310    13.5360    35.6110 O.3    2641  TIP2491    -0.4105
 26834 H1         -13.6340    14.0640    35.5570 H      2641  TIP2491     0.2052
 26835 H2         -15.1440    14.1660    35.5030 H      2641  TIP2491     0.2052
 26836 OH2          8.4120    15.1740   -19.7480 O.3    2642  TIP2492    -0.4105
 26837 H1           8.7810    16.0530   -19.8350 H      2642  TIP2492     0.2052
 26838 H2           9.0440    14.6050   -20.1870 H      2642  TIP2492     0.2052
 26839 OH2        -14.9560     8.2260   -12.0540 O.3    2643  TIP2493    -0.4105
 26840 H1         -15.1330     7.3160   -11.8140 H      2643  TIP2493     0.2052
 26841 H2         -14.0950     8.2000   -12.4690 H      2643  TIP2493     0.2052
 26842 OH2          8.5040    22.0150    43.8970 O.3    2644  TIP2494    -0.4105
 26843 H1           8.8710    21.1500    44.0790 H      2644  TIP2494     0.2052
 26844 H2           9.2620    22.5570    43.6800 H      2644  TIP2494     0.2052
 26845 OH2         21.0280    29.5100    31.0020 O.3    2645  TIP2495    -0.4105
 26846 H1          20.6220    28.8080    30.4950 H      2645  TIP2495     0.2052
 26847 H2          21.3070    29.0890    31.8150 H      2645  TIP2495     0.2052
 26848 OH2         20.6320     5.2770    29.0730 O.3    2646  TIP2496    -0.4105
 26849 H1          20.7410     4.6070    29.7480 H      2646  TIP2496     0.2052
 26850 H2          19.8690     4.9900    28.5720 H      2646  TIP2496     0.2052
 26851 OH2         29.1000   -25.6330   -45.2010 O.3    2647  TIP2497    -0.4105
 26852 H1          30.0360   -25.5780   -45.3930 H      2647  TIP2497     0.2052
 26853 H2          28.6730   -25.4940   -46.0460 H      2647  TIP2497     0.2052
 26854 OH2         28.7700   -16.8840   -34.3220 O.3    2648  TIP2498    -0.4105
 26855 H1          28.2490   -17.6010   -34.6840 H      2648  TIP2498     0.2052
 26856 H2          28.9880   -16.3400   -35.0780 H      2648  TIP2498     0.2052
 26857 OH2         22.4900    20.8100   -52.8430 O.3    2649  TIP2499    -0.4105
 26858 H1          22.2780    21.7390   -52.9380 H      2649  TIP2499     0.2052
 26859 H2          21.6390    20.3740   -52.7940 H      2649  TIP2499     0.2052
 26860 OH2         -9.2170     0.8340    51.3140 O.3    2650  TIP2500    -0.4105
 26861 H1          -8.4000     1.3210    51.4200 H      2650  TIP2500     0.2052
 26862 H2          -9.8270     1.4680    50.9370 H      2650  TIP2500     0.2052
 26863 OH2         21.4750    26.2460    49.7430 O.3    2651  TIP2501    -0.4105
 26864 H1          22.3580    26.5490    49.5310 H      2651  TIP2501     0.2052
 26865 H2          21.4520    26.2240    50.7000 H      2651  TIP2501     0.2052
 26866 OH2         16.6520    27.7970    18.5050 O.3    2652  TIP2502    -0.4105
 26867 H1          15.9030    28.0270    17.9540 H      2652  TIP2502     0.2052
 26868 H2          17.3820    27.7060    17.8930 H      2652  TIP2502     0.2052
 26869 OH2          9.7420   -21.1070   -27.5000 O.3    2653  TIP2503    -0.4105
 26870 H1           8.7960   -21.0040   -27.6070 H      2653  TIP2503     0.2052
 26871 H2          10.0790   -20.2120   -27.4750 H      2653  TIP2503     0.2052
 26872 OH2         11.4980     1.2170    31.0970 O.3    2654  TIP2504    -0.4105
 26873 H1          11.5630     0.9830    30.1710 H      2654  TIP2504     0.2052
 26874 H2          10.6580     0.8550    31.3780 H      2654  TIP2504     0.2052
 26875 OH2         26.1200    29.0880   -30.2590 O.3    2655  TIP2505    -0.4105
 26876 H1          25.4330    29.7540   -30.2800 H      2655  TIP2505     0.2052
 26877 H2          25.6480    28.2560   -30.2930 H      2655  TIP2505     0.2052
 26878 OH2         12.3190    19.7820    54.3290 O.3    2656  TIP2506    -0.4105
 26879 H1          11.6230    19.5160    53.7280 H      2656  TIP2506     0.2052
 26880 H2          13.1290    19.5380    53.8800 H      2656  TIP2506     0.2052
 26881 OH2        -30.4930     6.9830    46.3040 O.3    2657  TIP2507    -0.4105
 26882 H1         -30.0110     7.3420    45.5590 H      2657  TIP2507     0.2052
 26883 H2         -30.6980     6.0850    46.0470 H      2657  TIP2507     0.2052
 26884 OH2         -7.7510   -13.1270   -54.7420 O.3    2658  TIP2508    -0.4105
 26885 H1          -7.5140   -12.5350   -54.0280 H      2658  TIP2508     0.2052
 26886 H2          -6.9910   -13.1190   -55.3240 H      2658  TIP2508     0.2052
 26887 OH2         18.2980    -6.4440    47.3050 O.3    2659  TIP2509    -0.4105
 26888 H1          17.5860    -6.1080    46.7610 H      2659  TIP2509     0.2052
 26889 H2          19.0690    -6.4110    46.7380 H      2659  TIP2509     0.2052
 26890 OH2         12.9610     5.4590    39.7060 O.3    2660  TIP2510    -0.4105
 26891 H1          12.1510     4.9980    39.9240 H      2660  TIP2510     0.2052
 26892 H2          13.3460     5.6830    40.5530 H      2660  TIP2510     0.2052
 26893 OH2         -6.6880    17.5470    28.6300 O.3    2661  TIP2511    -0.4105
 26894 H1          -6.9910    16.6390    28.6690 H      2661  TIP2511     0.2052
 26895 H2          -7.4620    18.0470    28.3720 H      2661  TIP2511     0.2052
 26896 OH2         32.5880    14.6340    54.6950 O.3    2662  TIP2512    -0.4105
 26897 H1          32.5140    13.8830    54.1060 H      2662  TIP2512     0.2052
 26898 H2          32.2880    14.3040    55.5420 H      2662  TIP2512     0.2052
 26899 OH2         15.4500    29.6950    37.5800 O.3    2663  TIP2513    -0.4105
 26900 H1          16.1470    29.3810    38.1560 H      2663  TIP2513     0.2052
 26901 H2          14.6970    29.8140    38.1580 H      2663  TIP2513     0.2052
 26902 OH2         24.6080    13.5830   -25.2450 O.3    2664  TIP2514    -0.4105
 26903 H1          24.3410    13.9550   -24.4040 H      2664  TIP2514     0.2052
 26904 H2          25.2260    14.2200   -25.6030 H      2664  TIP2514     0.2052
 26905 OH2         -9.5980   -28.8830    50.0490 O.3    2665  TIP2515    -0.4105
 26906 H1          -9.9340   -29.4770    49.3780 H      2665  TIP2515     0.2052
 26907 H2          -8.8930   -29.3740    50.4720 H      2665  TIP2515     0.2052
 26908 OH2         -2.6470     6.9530   -43.7950 O.3    2666  TIP2516    -0.4105
 26909 H1          -2.4000     6.6190   -44.6570 H      2666  TIP2516     0.2052
 26910 H2          -3.0530     6.2050   -43.3560 H      2666  TIP2516     0.2052
 26911 OH2         22.9050     4.8200   -28.6400 O.3    2667  TIP2517    -0.4105
 26912 H1          23.7630     4.6580   -28.2480 H      2667  TIP2517     0.2052
 26913 H2          23.0970     5.2840   -29.4550 H      2667  TIP2517     0.2052
 26914 OH2        -18.6600   -31.0370   -30.5970 O.3    2668  TIP2518    -0.4105
 26915 H1         -19.6080   -30.9270   -30.6740 H      2668  TIP2518     0.2052
 26916 H2         -18.5010   -31.9410   -30.8700 H      2668  TIP2518     0.2052
 26917 OH2         -0.3820    -3.0720    52.6240 O.3    2669  TIP2519    -0.4105
 26918 H1          -0.5030    -2.7830    53.5290 H      2669  TIP2519     0.2052
 26919 H2           0.2730    -2.4720    52.2670 H      2669  TIP2519     0.2052
 26920 OH2        -21.6040    23.0140   -24.1620 O.3    2670  TIP2520    -0.4105
 26921 H1         -22.0880    22.1970   -24.0470 H      2670  TIP2520     0.2052
 26922 H2         -21.7730    23.5080   -23.3600 H      2670  TIP2520     0.2052
 26923 OH2         10.4940    -2.9240    -9.1500 O.3    2671  TIP2521    -0.4105
 26924 H1           9.8030    -3.4630    -9.5330 H      2671  TIP2521     0.2052
 26925 H2          10.3870    -2.0670    -9.5630 H      2671  TIP2521     0.2052
 26926 OH2         24.3880   -28.2360   -22.8210 O.3    2672  TIP2522    -0.4105
 26927 H1          23.6850   -28.8620   -22.6460 H      2672  TIP2522     0.2052
 26928 H2          23.9480   -27.4890   -23.2270 H      2672  TIP2522     0.2052
 26929 OH2         25.0120     5.7760    25.1310 O.3    2673  TIP2523    -0.4105
 26930 H1          25.4470     5.9410    24.2950 H      2673  TIP2523     0.2052
 26931 H2          25.7150     5.4850    25.7130 H      2673  TIP2523     0.2052
 26932 OH2         17.5840    18.8520   -38.6890 O.3    2674  TIP2524    -0.4105
 26933 H1          18.2150    18.5640   -38.0290 H      2674  TIP2524     0.2052
 26934 H2          16.7700    18.4090   -38.4510 H      2674  TIP2524     0.2052
 26935 OH2          8.6290   -14.4560   -50.0380 O.3    2675  TIP2525    -0.4105
 26936 H1           9.0780   -14.6610   -50.8580 H      2675  TIP2525     0.2052
 26937 H2           7.7470   -14.8100   -50.1520 H      2675  TIP2525     0.2052
 26938 OH2        -13.6000   -23.8950   -18.3290 O.3    2676  TIP2526    -0.4105
 26939 H1         -13.0920   -23.3830   -17.6990 H      2676  TIP2526     0.2052
 26940 H2         -13.5040   -24.8000   -18.0350 H      2676  TIP2526     0.2052
 26941 OH2        -29.4850     7.0710   -34.7860 O.3    2677  TIP2527    -0.4105
 26942 H1         -29.6070     6.1660   -35.0740 H      2677  TIP2527     0.2052
 26943 H2         -28.6150     7.3090   -35.1060 H      2677  TIP2527     0.2052
 26944 OH2         28.8750   -14.6450    35.1630 O.3    2678  TIP2528    -0.4105
 26945 H1          28.0260   -15.0690    35.0360 H      2678  TIP2528     0.2052
 26946 H2          28.8530   -14.3300    36.0660 H      2678  TIP2528     0.2052
 26947 OH2        -32.1550   -22.1470   -41.2000 O.3    2679  TIP2529    -0.4105
 26948 H1         -31.7110   -22.1900   -40.3530 H      2679  TIP2529     0.2052
 26949 H2         -33.0870   -22.1680   -40.9840 H      2679  TIP2529     0.2052
 26950 OH2          6.4840    -4.8340    49.9850 O.3    2680  TIP2530    -0.4105
 26951 H1           6.2340    -5.7170    50.2560 H      2680  TIP2530     0.2052
 26952 H2           5.7360    -4.5180    49.4780 H      2680  TIP2530     0.2052
 26953 OH2         -5.2730   -26.4590    51.4950 O.3    2681  TIP2531    -0.4105
 26954 H1          -6.0920   -26.8460    51.1840 H      2681  TIP2531     0.2052
 26955 H2          -5.1210   -26.8730    52.3450 H      2681  TIP2531     0.2052
 26956 OH2        -14.3070   -30.7980    47.2830 O.3    2682  TIP2532    -0.4105
 26957 H1         -14.4470   -29.8660    47.1190 H      2682  TIP2532     0.2052
 26958 H2         -13.5910   -31.0410    46.6960 H      2682  TIP2532     0.2052
 26959 OH2        -22.7860     8.4570   -38.3090 O.3    2683  TIP2533    -0.4105
 26960 H1         -23.6900     8.7680   -38.3690 H      2683  TIP2533     0.2052
 26961 H2         -22.3440     8.8600   -39.0560 H      2683  TIP2533     0.2052
 26962 OH2        -12.4970   -23.0740   -49.1790 O.3    2684  TIP2534    -0.4105
 26963 H1         -11.7300   -23.1600   -48.6130 H      2684  TIP2534     0.2052
 26964 H2         -12.3330   -23.6850   -49.8980 H      2684  TIP2534     0.2052
 26965 OH2         19.9500   -19.6490    28.9680 O.3    2685  TIP2535    -0.4105
 26966 H1          20.8670   -19.5130    28.7320 H      2685  TIP2535     0.2052
 26967 H2          19.4840   -19.6450    28.1320 H      2685  TIP2535     0.2052
 26968 OH2         28.1020     8.5270    49.0400 O.3    2686  TIP2536    -0.4105
 26969 H1          27.7580     7.7720    48.5620 H      2686  TIP2536     0.2052
 26970 H2          28.3310     9.1590    48.3590 H      2686  TIP2536     0.2052
 26971 OH2         12.3580     9.4270    46.8360 O.3    2687  TIP2537    -0.4105
 26972 H1          12.2440    10.0310    47.5700 H      2687  TIP2537     0.2052
 26973 H2          12.9850     9.8650    46.2600 H      2687  TIP2537     0.2052
 26974 OH2          7.5090   -12.9340   -45.7290 O.3    2688  TIP2538    -0.4105
 26975 H1           8.2240   -13.3730   -46.1900 H      2688  TIP2538     0.2052
 26976 H2           7.6170   -12.0080   -45.9450 H      2688  TIP2538     0.2052
 26977 OH2         12.3380    27.8000    47.2780 O.3    2689  TIP2539    -0.4105
 26978 H1          12.9670    28.1170    47.9260 H      2689  TIP2539     0.2052
 26979 H2          12.8780    27.4830    46.5550 H      2689  TIP2539     0.2052
 26980 OH2        -31.9080   -27.2410   -48.2960 O.3    2690  TIP2540    -0.4105
 26981 H1         -32.8020   -26.9710   -48.5040 H      2690  TIP2540     0.2052
 26982 H2         -31.4280   -27.1360   -49.1180 H      2690  TIP2540     0.2052
 26983 OH2         28.7990    14.2330   -38.7780 O.3    2691  TIP2541    -0.4105
 26984 H1          29.1550    13.3450   -38.7710 H      2691  TIP2541     0.2052
 26985 H2          27.8930    14.1310   -38.4850 H      2691  TIP2541     0.2052
 26986 OH2         -2.4890   -28.9000    52.8000 O.3    2692  TIP2542    -0.4105
 26987 H1          -1.7310   -28.5200    53.2430 H      2692  TIP2542     0.2052
 26988 H2          -2.1500   -29.1980    51.9560 H      2692  TIP2542     0.2052
 26989 OH2          1.3810    14.1080   -52.4260 O.3    2693  TIP2543    -0.4105
 26990 H1           1.0910    14.8990   -51.9710 H      2693  TIP2543     0.2052
 26991 H2           0.8140    14.0530   -53.1950 H      2693  TIP2543     0.2052
 26992 OH2          6.5640   -13.3360    29.9970 O.3    2694  TIP2544    -0.4105
 26993 H1           7.2780   -13.5860    29.4110 H      2694  TIP2544     0.2052
 26994 H2           6.7570   -13.7880    30.8180 H      2694  TIP2544     0.2052
 26995 OH2          3.4130    20.6100    48.5990 O.3    2695  TIP2545    -0.4105
 26996 H1           4.3380    20.5870    48.8430 H      2695  TIP2545     0.2052
 26997 H2           3.4180    20.7600    47.6540 H      2695  TIP2545     0.2052
 26998 OH2          3.5080     9.0520    36.2250 O.3    2696  TIP2546    -0.4105
 26999 H1           3.5260     8.1520    35.9000 H      2696  TIP2546     0.2052
 27000 H2           3.4290     9.5900    35.4370 H      2696  TIP2546     0.2052
 27001 OH2         26.6790   -16.3190    35.2250 O.3    2697  TIP2547    -0.4105
 27002 H1          26.8300   -17.2260    35.4930 H      2697  TIP2547     0.2052
 27003 H2          25.7310   -16.2570    35.1090 H      2697  TIP2547     0.2052
 27004 OH2         -9.2340     7.8630   -33.3770 O.3    2698  TIP2548    -0.4105
 27005 H1          -9.7790     8.2560   -32.6950 H      2698  TIP2548     0.2052
 27006 H2          -9.4050     6.9230   -33.3080 H      2698  TIP2548     0.2052
 27007 OH2         10.9380   -20.0920    50.0140 O.3    2699  TIP2549    -0.4105
 27008 H1          10.1740   -19.5780    50.2760 H      2699  TIP2549     0.2052
 27009 H2          11.4280   -20.2250    50.8250 H      2699  TIP2549     0.2052
 27010 OH2          2.7550     8.2330   -41.5110 O.3    2700  TIP2550    -0.4105
 27011 H1           2.0470     8.7150   -41.9380 H      2700  TIP2550     0.2052
 27012 H2           3.5080     8.3490   -42.0900 H      2700  TIP2550     0.2052
 27013 OH2        -10.8910   -11.4860    33.7150 O.3    2701  TIP2551    -0.4105
 27014 H1         -10.9890   -11.8980    34.5730 H      2701  TIP2551     0.2052
 27015 H2         -11.7870   -11.3790    33.3960 H      2701  TIP2551     0.2052
 27016 OH2         10.3660     9.1020    43.0230 O.3    2702  TIP2552    -0.4105
 27017 H1          10.9850     9.5510    42.4480 H      2702  TIP2552     0.2052
 27018 H2           9.7510     8.6750    42.4270 H      2702  TIP2552     0.2052
 27019 OH2         13.5810    26.0510    25.2410 O.3    2703  TIP2553    -0.4105
 27020 H1          14.1750    25.3340    25.0230 H      2703  TIP2553     0.2052
 27021 H2          13.7190    26.6970    24.5480 H      2703  TIP2553     0.2052
 27022 OH2          8.6430   -27.9870    40.1810 O.3    2704  TIP2554    -0.4105
 27023 H1           7.6870   -27.9400    40.1750 H      2704  TIP2554     0.2052
 27024 H2           8.8420   -28.8680    39.8650 H      2704  TIP2554     0.2052
 27025 OH2        -18.3710   -21.8850    22.2640 O.3    2705  TIP2555    -0.4105
 27026 H1         -17.7550   -22.2780    22.8820 H      2705  TIP2555     0.2052
 27027 H2         -18.0640   -20.9850    22.1580 H      2705  TIP2555     0.2052
 27028 OH2        -22.0820    25.1560   -47.9500 O.3    2706  TIP2556    -0.4105
 27029 H1         -22.9610    25.0900   -48.3220 H      2706  TIP2556     0.2052
 27030 H2         -21.6540    24.3370   -48.2000 H      2706  TIP2556     0.2052
 27031 OH2         21.8330     7.9080    32.8640 O.3    2707  TIP2557    -0.4105
 27032 H1          21.0300     8.3040    33.2040 H      2707  TIP2557     0.2052
 27033 H2          21.9670     7.1320    33.4090 H      2707  TIP2557     0.2052
 27034 OH2         28.6420    24.4830    17.7350 O.3    2708  TIP2558    -0.4105
 27035 H1          28.8420    24.6270    18.6600 H      2708  TIP2558     0.2052
 27036 H2          27.8000    24.9180    17.6020 H      2708  TIP2558     0.2052
 27037 OH2        -30.4850    -1.9430    53.3590 O.3    2709  TIP2559    -0.4105
 27038 H1         -29.7950    -2.4460    52.9260 H      2709  TIP2559     0.2052
 27039 H2         -30.1490    -1.0460    53.3810 H      2709  TIP2559     0.2052
 27040 OH2         24.5470   -15.2090   -14.3520 O.3    2710  TIP2560    -0.4105
 27041 H1          24.7040   -15.1810   -13.4080 H      2710  TIP2560     0.2052
 27042 H2          23.8690   -15.8760   -14.4630 H      2710  TIP2560     0.2052
 27043 OH2         24.9810    29.7850    28.6640 O.3    2711  TIP2561    -0.4105
 27044 H1          24.7250    28.9140    28.3600 H      2711  TIP2561     0.2052
 27045 H2          25.1370    30.2830    27.8610 H      2711  TIP2561     0.2052
 27046 OH2         22.7350    30.3940   -55.1010 O.3    2712  TIP2562    -0.4105
 27047 H1          22.7170    29.9310   -55.9390 H      2712  TIP2562     0.2052
 27048 H2          22.4490    31.2830   -55.3130 H      2712  TIP2562     0.2052
 27049 OH2          0.2570    16.1250    38.9400 O.3    2713  TIP2563    -0.4105
 27050 H1          -0.3900    15.8820    38.2780 H      2713  TIP2563     0.2052
 27051 H2           1.0950    16.1000    38.4770 H      2713  TIP2563     0.2052
 27052 OH2        -29.3240   -11.2990   -49.9360 O.3    2714  TIP2564    -0.4105
 27053 H1         -28.7630   -11.2790   -50.7120 H      2714  TIP2564     0.2052
 27054 H2         -28.9570   -10.6310   -49.3570 H      2714  TIP2564     0.2052
 27055 OH2         -8.4170   -22.4190    32.0460 O.3    2715  TIP2565    -0.4105
 27056 H1          -7.7850   -22.7210    32.6980 H      2715  TIP2565     0.2052
 27057 H2          -7.9530   -21.7370    31.5600 H      2715  TIP2565     0.2052
 27058 OH2         25.1430     3.1200    51.9650 O.3    2716  TIP2566    -0.4105
 27059 H1          25.4900     2.3150    51.5790 H      2716  TIP2566     0.2052
 27060 H2          24.5710     3.4820    51.2890 H      2716  TIP2566     0.2052
 27061 OH2         -6.2950    29.4400   -52.4970 O.3    2717  TIP2567    -0.4105
 27062 H1          -5.5170    29.6510   -51.9800 H      2717  TIP2567     0.2052
 27063 H2          -6.9790    29.2800   -51.8480 H      2717  TIP2567     0.2052
 27064 OH2        -27.3830    -8.5980    27.0020 O.3    2718  TIP2568    -0.4105
 27065 H1         -28.2660    -8.7360    26.6600 H      2718  TIP2568     0.2052
 27066 H2         -26.9330    -9.4290    26.8500 H      2718  TIP2568     0.2052
 27067 OH2        -17.8820    22.1110    51.3600 O.3    2719  TIP2569    -0.4105
 27068 H1         -17.6240    21.9890    52.2730 H      2719  TIP2569     0.2052
 27069 H2         -17.9780    23.0590    51.2620 H      2719  TIP2569     0.2052
 27070 OH2        -32.1000    24.3150   -51.0610 O.3    2720  TIP2570    -0.4105
 27071 H1         -32.6250    24.8950   -51.6120 H      2720  TIP2570     0.2052
 27072 H2         -32.4130    24.4790   -50.1720 H      2720  TIP2570     0.2052
 27073 OH2         19.6970    -8.9720    31.5360 O.3    2721  TIP2571    -0.4105
 27074 H1          19.0750    -9.6990    31.4950 H      2721  TIP2571     0.2052
 27075 H2          20.2360    -9.1600    32.3050 H      2721  TIP2571     0.2052
 27076 OH2          4.5530    15.9190    19.6280 O.3    2722  TIP2572    -0.4105
 27077 H1           4.9470    16.6920    19.2240 H      2722  TIP2572     0.2052
 27078 H2           3.9840    15.5570    18.9480 H      2722  TIP2572     0.2052
 27079 OH2         -8.5870    14.5850   -44.8180 O.3    2723  TIP2573    -0.4105
 27080 H1          -9.0520    15.2230   -45.3580 H      2723  TIP2573     0.2052
 27081 H2          -9.2270    14.3150   -44.1600 H      2723  TIP2573     0.2052
 27082 OH2         27.8370   -14.3480    40.7090 O.3    2724  TIP2574    -0.4105
 27083 H1          26.9860   -13.9130    40.6500 H      2724  TIP2574     0.2052
 27084 H2          27.6690   -15.2430    40.4150 H      2724  TIP2574     0.2052
 27085 OH2        -10.7310    19.3390    55.4840 O.3    2725  TIP2575    -0.4105
 27086 H1         -11.2270    19.8580    56.1180 H      2725  TIP2575     0.2052
 27087 H2         -10.0570    18.9030    56.0060 H      2725  TIP2575     0.2052
 27088 OH2        -26.4330     5.1250   -38.2700 O.3    2726  TIP2576    -0.4105
 27089 H1         -26.9320     5.5050   -38.9930 H      2726  TIP2576     0.2052
 27090 H2         -25.9410     4.4080   -38.6690 H      2726  TIP2576     0.2052
 27091 OH2          9.3450    16.2200    34.0660 O.3    2727  TIP2577    -0.4105
 27092 H1           9.2100    16.8290    34.7930 H      2727  TIP2577     0.2052
 27093 H2          10.1430    15.7440    34.2970 H      2727  TIP2577     0.2052
 27094 OH2         30.1670   -24.4470    46.8580 O.3    2728  TIP2578    -0.4105
 27095 H1          29.7930   -25.0930    46.2590 H      2728  TIP2578     0.2052
 27096 H2          30.0730   -24.8400    47.7250 H      2728  TIP2578     0.2052
 27097 OH2         17.6870   -14.4480    27.0060 O.3    2729  TIP2579    -0.4105
 27098 H1          17.7080   -15.4000    27.1080 H      2729  TIP2579     0.2052
 27099 H2          17.5180   -14.3110    26.0740 H      2729  TIP2579     0.2052
 27100 OH2         28.9580     0.1030    46.1810 O.3    2730  TIP2580    -0.4105
 27101 H1          29.5450    -0.5530    45.8050 H      2730  TIP2580     0.2052
 27102 H2          28.2150     0.1340    45.5780 H      2730  TIP2580     0.2052
 27103 OH2        -27.1140   -33.0530   -53.4820 O.3    2731  TIP2581    -0.4105
 27104 H1         -27.0040   -32.6590   -52.6170 H      2731  TIP2581     0.2052
 27105 H2         -27.7370   -33.7660   -53.3430 H      2731  TIP2581     0.2052
 27106 OH2        -10.9440    19.3410   -41.7240 O.3    2732  TIP2582    -0.4105
 27107 H1         -10.5810    20.1970   -41.4990 H      2732  TIP2582     0.2052
 27108 H2         -11.4470    19.4950   -42.5240 H      2732  TIP2582     0.2052
 27109 OH2         23.9460   -20.7170   -44.7830 O.3    2733  TIP2583    -0.4105
 27110 H1          23.4350   -21.5110   -44.9390 H      2733  TIP2583     0.2052
 27111 H2          24.4470   -20.9070   -43.9900 H      2733  TIP2583     0.2052
 27112 OH2          1.9040    -8.9360    23.2050 O.3    2734  TIP2584    -0.4105
 27113 H1           1.4250    -8.1230    23.0490 H      2734  TIP2584     0.2052
 27114 H2           1.2220    -9.6010    23.3050 H      2734  TIP2584     0.2052
 27115 OH2        -10.7820   -24.1130   -38.8770 O.3    2735  TIP2585    -0.4105
 27116 H1         -11.5230   -24.3040   -38.3010 H      2735  TIP2585     0.2052
 27117 H2         -10.4270   -23.2880   -38.5460 H      2735  TIP2585     0.2052
 27118 OH2        -28.5170    30.8670   -37.3470 O.3    2736  TIP2586    -0.4105
 27119 H1         -28.4800    30.5630   -38.2540 H      2736  TIP2586     0.2052
 27120 H2         -27.8000    31.4970   -37.2760 H      2736  TIP2586     0.2052
 27121 OH2         -5.0590    20.5210   -40.3800 O.3    2737  TIP2587    -0.4105
 27122 H1          -4.5240    20.9990   -39.7470 H      2737  TIP2587     0.2052
 27123 H2          -5.5180    21.2020   -40.8710 H      2737  TIP2587     0.2052
 27124 OH2         22.7920    31.5280    24.1620 O.3    2738  TIP2588    -0.4105
 27125 H1          22.4670    31.7040    23.2790 H      2738  TIP2588     0.2052
 27126 H2          22.0510    31.7290    24.7340 H      2738  TIP2588     0.2052
 27127 OH2         -0.3660    23.8230   -51.3520 O.3    2739  TIP2589    -0.4105
 27128 H1          -0.5540    24.6730   -51.7500 H      2739  TIP2589     0.2052
 27129 H2           0.5890    23.7600   -51.3600 H      2739  TIP2589     0.2052
 27130 OH2         11.5200    15.3000   -35.0930 O.3    2740  TIP2590    -0.4105
 27131 H1          11.5040    16.2330   -34.8800 H      2740  TIP2590     0.2052
 27132 H2          10.7350    15.1620   -35.6230 H      2740  TIP2590     0.2052
 27133 OH2        -23.7810    27.6760    20.2670 O.3    2741  TIP2591    -0.4105
 27134 H1         -24.0110    26.7620    20.1010 H      2741  TIP2591     0.2052
 27135 H2         -24.5940    28.1590    20.1210 H      2741  TIP2591     0.2052
 27136 OH2          8.8350   -19.3720    36.2500 O.3    2742  TIP2592    -0.4105
 27137 H1           8.4240   -19.6940    37.0520 H      2742  TIP2592     0.2052
 27138 H2           8.5860   -18.4490    36.2070 H      2742  TIP2592     0.2052
 27139 OH2         -6.1990     7.8930   -48.8990 O.3    2743  TIP2593    -0.4105
 27140 H1          -6.9960     7.9450   -49.4260 H      2743  TIP2593     0.2052
 27141 H2          -6.3910     8.4170   -48.1210 H      2743  TIP2593     0.2052
 27142 OH2        -25.1860   -16.2880    50.0050 O.3    2744  TIP2594    -0.4105
 27143 H1         -25.3070   -16.2250    50.9530 H      2744  TIP2594     0.2052
 27144 H2         -24.4080   -15.7600    49.8260 H      2744  TIP2594     0.2052
 27145 OH2        -23.0750   -29.6050    39.7050 O.3    2745  TIP2595    -0.4105
 27146 H1         -23.2310   -29.6010    40.6490 H      2745  TIP2595     0.2052
 27147 H2         -22.1480   -29.8250    39.6150 H      2745  TIP2595     0.2052
 27148 OH2         11.5660   -12.5720   -22.0330 O.3    2746  TIP2596    -0.4105
 27149 H1          10.8330   -13.0660   -21.6670 H      2746  TIP2596     0.2052
 27150 H2          12.2760   -12.6920   -21.4020 H      2746  TIP2596     0.2052
 27151 OH2         12.0460     4.5710   -48.9610 O.3    2747  TIP2597    -0.4105
 27152 H1          12.6860     5.2020   -49.2880 H      2747  TIP2597     0.2052
 27153 H2          12.4640     4.1810   -48.1930 H      2747  TIP2597     0.2052
 27154 OH2         13.2830   -27.8700   -49.1160 O.3    2748  TIP2598    -0.4105
 27155 H1          12.5570   -28.2380   -48.6110 H      2748  TIP2598     0.2052
 27156 H2          13.9130   -28.5880   -49.1870 H      2748  TIP2598     0.2052
 27157 OH2        -24.6660     5.2180    41.1130 O.3    2749  TIP2599    -0.4105
 27158 H1         -24.3540     5.4260    41.9930 H      2749  TIP2599     0.2052
 27159 H2         -23.8710     5.0240    40.6160 H      2749  TIP2599     0.2052
 27160 OH2         -4.8780    -4.2480    38.7150 O.3    2750  TIP2600    -0.4105
 27161 H1          -4.6250    -4.8130    39.4450 H      2750  TIP2600     0.2052
 27162 H2          -4.8640    -4.8240    37.9500 H      2750  TIP2600     0.2052
 27163 OH2         28.8060     0.4940   -36.3460 O.3    2751  TIP2601    -0.4105
 27164 H1          29.7040     0.7250   -36.1070 H      2751  TIP2601     0.2052
 27165 H2          28.7770    -0.4600   -36.2780 H      2751  TIP2601     0.2052
 27166 OH2          9.6110   -17.7190   -38.8900 O.3    2752  TIP2602    -0.4105
 27167 H1           9.5180   -17.3740   -39.7780 H      2752  TIP2602     0.2052
 27168 H2          10.3340   -18.3430   -38.9500 H      2752  TIP2602     0.2052
 27169 OH2         18.6110   -23.6170    53.4670 O.3    2753  TIP2603    -0.4105
 27170 H1          18.5530   -24.0480    52.6150 H      2753  TIP2603     0.2052
 27171 H2          17.7040   -23.5510    53.7650 H      2753  TIP2603     0.2052
 27172 OH2        -12.3950   -28.1790    44.3260 O.3    2754  TIP2604    -0.4105
 27173 H1         -11.6390   -28.7620    44.2570 H      2754  TIP2604     0.2052
 27174 H2         -12.0180   -27.3180    44.5090 H      2754  TIP2604     0.2052
 27175 OH2          7.2920    -5.5020   -27.0160 O.3    2755  TIP2605    -0.4105
 27176 H1           6.6730    -5.9980   -26.4810 H      2755  TIP2605     0.2052
 27177 H2           6.8640    -4.6580   -27.1590 H      2755  TIP2605     0.2052
 27178 OH2         -1.0770   -31.0860    19.1420 O.3    2756  TIP2606    -0.4105
 27179 H1          -1.3010   -31.4550    18.2880 H      2756  TIP2606     0.2052
 27180 H2          -0.1250   -31.1620    19.1950 H      2756  TIP2606     0.2052
 27181 OH2        -19.3540    15.3870    27.9260 O.3    2757  TIP2607    -0.4105
 27182 H1         -20.2450    15.0660    28.0700 H      2757  TIP2607     0.2052
 27183 H2         -18.9600    15.4010    28.7980 H      2757  TIP2607     0.2052
 27184 OH2        -23.8010    23.4940   -44.5970 O.3    2758  TIP2608    -0.4105
 27185 H1         -23.7130    23.8500   -43.7130 H      2758  TIP2608     0.2052
 27186 H2         -24.7090    23.6750   -44.8390 H      2758  TIP2608     0.2052
 27187 OH2        -31.9230    19.4730    51.8540 O.3    2759  TIP2609    -0.4105
 27188 H1         -31.5360    19.0720    51.0750 H      2759  TIP2609     0.2052
 27189 H2         -32.8620    19.4930    51.6720 H      2759  TIP2609     0.2052
 27190 OH2         18.1490    -7.5620   -40.5750 O.3    2760  TIP2610    -0.4105
 27191 H1          18.4980    -6.7930   -41.0260 H      2760  TIP2610     0.2052
 27192 H2          18.5090    -8.3070   -41.0560 H      2760  TIP2610     0.2052
 27193 OH2        -26.1350   -30.3780   -43.5970 O.3    2761  TIP2611    -0.4105
 27194 H1         -26.3350   -29.4620   -43.7910 H      2761  TIP2611     0.2052
 27195 H2         -26.1830   -30.4370   -42.6430 H      2761  TIP2611     0.2052
 27196 OH2        -29.5450   -30.1790   -35.2690 O.3    2762  TIP2612    -0.4105
 27197 H1         -30.2490   -30.4840   -34.6970 H      2762  TIP2612     0.2052
 27198 H2         -29.0390   -29.5750   -34.7250 H      2762  TIP2612     0.2052
 27199 OH2        -17.4300   -27.4780    25.8750 O.3    2763  TIP2613    -0.4105
 27200 H1         -18.1380   -27.2250    26.4660 H      2763  TIP2613     0.2052
 27201 H2         -16.6980   -26.9130    26.1220 H      2763  TIP2613     0.2052
 27202 OH2        -21.1210    23.0990   -45.1090 O.3    2764  TIP2614    -0.4105
 27203 H1         -20.7700    23.1950   -45.9940 H      2764  TIP2614     0.2052
 27204 H2         -22.0080    23.4550   -45.1620 H      2764  TIP2614     0.2052
 27205 OH2         -5.5830   -24.1450   -44.6190 O.3    2765  TIP2615    -0.4105
 27206 H1          -5.0860   -23.3290   -44.6700 H      2765  TIP2615     0.2052
 27207 H2          -5.2000   -24.6130   -43.8770 H      2765  TIP2615     0.2052
 27208 OH2        -12.9670   -13.3980    47.8010 O.3    2766  TIP2616    -0.4105
 27209 H1         -13.0710   -12.5680    47.3340 H      2766  TIP2616     0.2052
 27210 H2         -13.5510   -13.3230    48.5550 H      2766  TIP2616     0.2052
 27211 OH2         21.0500    31.6400    26.4220 O.3    2767  TIP2617    -0.4105
 27212 H1          20.2520    31.2280    26.0910 H      2767  TIP2617     0.2052
 27213 H2          21.3900    31.0210    27.0680 H      2767  TIP2617     0.2052
 27214 OH2          8.7630   -14.3130    28.8540 O.3    2768  TIP2618    -0.4105
 27215 H1           9.4310   -14.1430    29.5180 H      2768  TIP2618     0.2052
 27216 H2           9.2390   -14.2950    28.0240 H      2768  TIP2618     0.2052
 27217 OH2         -2.2300   -13.7790   -39.2790 O.3    2769  TIP2619    -0.4105
 27218 H1          -2.1070   -12.8770   -39.5750 H      2769  TIP2619     0.2052
 27219 H2          -2.1760   -14.3030   -40.0780 H      2769  TIP2619     0.2052
 27220 OH2         23.9950     6.4190    46.9000 O.3    2770  TIP2620    -0.4105
 27221 H1          23.9700     5.4670    46.9930 H      2770  TIP2620     0.2052
 27222 H2          23.1410     6.6480    46.5330 H      2770  TIP2620     0.2052
 27223 OH2        -18.5480    31.6420   -52.2030 O.3    2771  TIP2621    -0.4105
 27224 H1         -19.0350    30.8460   -51.9870 H      2771  TIP2621     0.2052
 27225 H2         -19.0980    32.0930   -52.8430 H      2771  TIP2621     0.2052
 27226 OH2        -30.8680    14.7280   -42.2170 O.3    2772  TIP2622    -0.4105
 27227 H1         -31.6720    15.0560   -41.8140 H      2772  TIP2622     0.2052
 27228 H2         -30.4320    15.5110   -42.5550 H      2772  TIP2622     0.2052
 27229 OH2        -14.8910    -8.1480   -24.5480 O.3    2773  TIP2623    -0.4105
 27230 H1         -14.4560    -7.7090   -23.8170 H      2773  TIP2623     0.2052
 27231 H2         -14.9090    -7.4930   -25.2450 H      2773  TIP2623     0.2052
 27232 OH2          1.3090     6.8730   -24.9510 O.3    2774  TIP2624    -0.4105
 27233 H1           0.5760     6.4870   -24.4700 H      2774  TIP2624     0.2052
 27234 H2           0.9030     7.2870   -25.7130 H      2774  TIP2624     0.2052
 27235 OH2        -23.4690     8.5930    51.0900 O.3    2775  TIP2625    -0.4105
 27236 H1         -23.6400     9.1790    50.3530 H      2775  TIP2625     0.2052
 27237 H2         -23.8340     7.7510    50.8160 H      2775  TIP2625     0.2052
 27238 OH2         -5.9090     1.5090   -35.6300 O.3    2776  TIP2626    -0.4105
 27239 H1          -5.3710     2.2610   -35.3840 H      2776  TIP2626     0.2052
 27240 H2          -6.5370     1.8600   -36.2620 H      2776  TIP2626     0.2052
 27241 OH2        -18.3780   -13.8840   -31.5250 O.3    2777  TIP2627    -0.4105
 27242 H1         -18.9570   -14.5560   -31.8850 H      2777  TIP2627     0.2052
 27243 H2         -18.5160   -13.9290   -30.5790 H      2777  TIP2627     0.2052
 27244 OH2         10.8610   -31.2990   -40.3800 O.3    2778  TIP2628    -0.4105
 27245 H1          10.9280   -31.6850   -39.5070 H      2778  TIP2628     0.2052
 27246 H2          10.2900   -30.5390   -40.2640 H      2778  TIP2628     0.2052
 27247 OH2        -18.0490   -27.3470    35.0010 O.3    2779  TIP2629    -0.4105
 27248 H1         -18.5100   -26.5780    35.3350 H      2779  TIP2629     0.2052
 27249 H2         -17.1410   -27.2200    35.2750 H      2779  TIP2629     0.2052
 27250 OH2         15.2330   -21.6990   -30.0420 O.3    2780  TIP2630    -0.4105
 27251 H1          15.2370   -21.0000   -30.6960 H      2780  TIP2630     0.2052
 27252 H2          14.8100   -21.3090   -29.2760 H      2780  TIP2630     0.2052
 27253 OH2         10.6240    16.1900    46.2570 O.3    2781  TIP2631    -0.4105
 27254 H1           9.8890    16.0080    45.6720 H      2781  TIP2631     0.2052
 27255 H2          10.8100    15.3490    46.6760 H      2781  TIP2631     0.2052
 27256 OH2         20.4000     9.0710   -24.0630 O.3    2782  TIP2632    -0.4105
 27257 H1          19.9840     9.8770   -23.7590 H      2782  TIP2632     0.2052
 27258 H2          21.1950     9.3640   -24.5080 H      2782  TIP2632     0.2052
 27259 OH2        -15.4140    29.0500   -42.8450 O.3    2783  TIP2633    -0.4105
 27260 H1         -15.0660    29.9360   -42.7500 H      2783  TIP2633     0.2052
 27261 H2         -16.1320    29.1400   -43.4730 H      2783  TIP2633     0.2052
 27262 OH2        -12.6350    31.6400    18.2100 O.3    2784  TIP2634    -0.4105
 27263 H1         -12.3270    30.7450    18.3520 H      2784  TIP2634     0.2052
 27264 H2         -11.8400    32.1740    18.2400 H      2784  TIP2634     0.2052
 27265 OH2        -17.1110   -11.4450   -17.5640 O.3    2785  TIP2635    -0.4105
 27266 H1         -16.1680   -11.3960   -17.7170 H      2785  TIP2635     0.2052
 27267 H2         -17.4970   -11.4410   -18.4400 H      2785  TIP2635     0.2052
 27268 OH2        -23.4020    31.7590   -48.8620 O.3    2786  TIP2636    -0.4105
 27269 H1         -22.9540    31.9560   -49.6850 H      2786  TIP2636     0.2052
 27270 H2         -24.1060    31.1600   -49.1090 H      2786  TIP2636     0.2052
 27271 OH2        -29.7050   -20.7720   -23.4100 O.3    2787  TIP2637    -0.4105
 27272 H1         -29.0240   -20.3760   -23.9540 H      2787  TIP2637     0.2052
 27273 H2         -29.2310   -21.3650   -22.8270 H      2787  TIP2637     0.2052
 27274 OH2         11.2330    -9.0640   -26.7970 O.3    2788  TIP2638    -0.4105
 27275 H1          10.5420    -8.9160   -27.4430 H      2788  TIP2638     0.2052
 27276 H2          11.2670   -10.0150   -26.6960 H      2788  TIP2638     0.2052
 27277 OH2         11.2870    31.0670   -43.2320 O.3    2789  TIP2639    -0.4105
 27278 H1          10.7800    30.2690   -43.3810 H      2789  TIP2639     0.2052
 27279 H2          10.7540    31.5800   -42.6250 H      2789  TIP2639     0.2052
 27280 OH2        -16.9360     3.2660    34.5720 O.3    2790  TIP2640    -0.4105
 27281 H1         -17.6970     2.8340    34.9600 H      2790  TIP2640     0.2052
 27282 H2         -17.1390     3.3170    33.6380 H      2790  TIP2640     0.2052
 27283 OH2        -24.3840    24.8230    50.6140 O.3    2791  TIP2641    -0.4105
 27284 H1         -24.2330    25.5140    49.9690 H      2791  TIP2641     0.2052
 27285 H2         -25.1510    24.3520    50.2860 H      2791  TIP2641     0.2052
 27286 OH2         10.9760    -9.4480   -46.0030 O.3    2792  TIP2642    -0.4105
 27287 H1          11.2130    -8.6210   -45.5850 H      2792  TIP2642     0.2052
 27288 H2          11.7900    -9.7560   -46.4030 H      2792  TIP2642     0.2052
 27289 OH2        -19.3260    -9.8630   -54.5080 O.3    2793  TIP2643    -0.4105
 27290 H1         -20.1420   -10.1830   -54.8930 H      2793  TIP2643     0.2052
 27291 H2         -19.1710   -10.4400   -53.7590 H      2793  TIP2643     0.2052
 27292 OH2         27.0970    19.1840    49.2590 O.3    2794  TIP2644    -0.4105
 27293 H1          27.7010    18.6670    49.7920 H      2794  TIP2644     0.2052
 27294 H2          26.3330    18.6190    49.1450 H      2794  TIP2644     0.2052
 27295 OH2        -11.7190   -32.0420    27.9230 O.3    2795  TIP2645    -0.4105
 27296 H1         -12.2480   -31.6850    27.2090 H      2795  TIP2645     0.2052
 27297 H2         -11.0210   -32.5280    27.4850 H      2795  TIP2645     0.2052
 27298 OH2        -10.6510    15.8600    30.1300 O.3    2796  TIP2646    -0.4105
 27299 H1         -10.1670    16.6850    30.1150 H      2796  TIP2646     0.2052
 27300 H2         -10.1880    15.3220    30.7730 H      2796  TIP2646     0.2052
 27301 OH2          5.5480     4.6750   -54.5430 O.3    2797  TIP2647    -0.4105
 27302 H1           4.7510     5.0980   -54.8640 H      2797  TIP2647     0.2052
 27303 H2           5.7360     3.9960   -55.1910 H      2797  TIP2647     0.2052
 27304 OH2         20.0580   -16.3740   -31.7690 O.3    2798  TIP2648    -0.4105
 27305 H1          20.0740   -15.8680   -32.5820 H      2798  TIP2648     0.2052
 27306 H2          19.1330   -16.5750   -31.6300 H      2798  TIP2648     0.2052
 27307 OH2         -9.1040   -32.7650    45.9500 O.3    2799  TIP2649    -0.4105
 27308 H1          -8.6950   -32.2710    46.6600 H      2799  TIP2649     0.2052
 27309 H2          -9.0030   -33.6820    46.2050 H      2799  TIP2649     0.2052
 27310 OH2         29.8520    16.5990   -37.8570 O.3    2800  TIP2650    -0.4105
 27311 H1          29.2580    17.1950   -37.4010 H      2800  TIP2650     0.2052
 27312 H2          29.3510    15.7900   -37.9580 H      2800  TIP2650     0.2052
 27313 OH2         21.2430    12.2170   -46.5450 O.3    2801  TIP2651    -0.4105
 27314 H1          22.0940    12.4250   -46.9300 H      2801  TIP2651     0.2052
 27315 H2          21.3670    12.3400   -45.6040 H      2801  TIP2651     0.2052
 27316 OH2         10.3390   -27.8730    50.9690 O.3    2802  TIP2652    -0.4105
 27317 H1          11.0100   -27.1950    50.8900 H      2802  TIP2652     0.2052
 27318 H2          10.6540   -28.5880    50.4150 H      2802  TIP2652     0.2052
 27319 OH2         -4.5320    19.9060    20.9060 O.3    2803  TIP2653    -0.4105
 27320 H1          -5.4070    19.8640    21.2930 H      2803  TIP2653     0.2052
 27321 H2          -4.6090    20.5590    20.2100 H      2803  TIP2653     0.2052
 27322 OH2          0.5090   -32.5060    30.3990 O.3    2804  TIP2654    -0.4105
 27323 H1           0.6700   -31.9460    31.1590 H      2804  TIP2654     0.2052
 27324 H2           0.9780   -33.3170    30.5950 H      2804  TIP2654     0.2052
 27325 OH2        -29.5480    29.9820   -46.4520 O.3    2805  TIP2655    -0.4105
 27326 H1         -28.7320    29.6300   -46.8080 H      2805  TIP2655     0.2052
 27327 H2         -29.9030    29.2720   -45.9170 H      2805  TIP2655     0.2052
 27328 OH2         -9.8410    28.8880    37.9640 O.3    2806  TIP2656    -0.4105
 27329 H1         -10.2340    28.6610    38.8070 H      2806  TIP2656     0.2052
 27330 H2          -9.4890    29.7680    38.0930 H      2806  TIP2656     0.2052
 27331 OH2          5.7570   -10.6850    30.4420 O.3    2807  TIP2657    -0.4105
 27332 H1           6.2260   -11.5200    30.4400 H      2807  TIP2657     0.2052
 27333 H2           5.0940   -10.7840    31.1250 H      2807  TIP2657     0.2052
 27334 OH2         14.4070    11.9400    35.8950 O.3    2808  TIP2658    -0.4105
 27335 H1          13.5110    11.7200    36.1510 H      2808  TIP2658     0.2052
 27336 H2          14.4180    11.8320    34.9440 H      2808  TIP2658     0.2052
 27337 OH2         -3.7350    -8.2820   -20.7510 O.3    2809  TIP2659    -0.4105
 27338 H1          -3.2340    -8.8810   -21.3050 H      2809  TIP2659     0.2052
 27339 H2          -4.1270    -7.6590   -21.3630 H      2809  TIP2659     0.2052
 27340 OH2         16.9230     5.2700   -25.8750 O.3    2810  TIP2660    -0.4105
 27341 H1          16.9380     4.6780   -26.6260 H      2810  TIP2660     0.2052
 27342 H2          17.5420     4.8860   -25.2540 H      2810  TIP2660     0.2052
 27343 OH2         22.3170    -1.6080   -50.3470 O.3    2811  TIP2661    -0.4105
 27344 H1          23.1070    -1.3650   -49.8660 H      2811  TIP2661     0.2052
 27345 H2          21.6370    -1.6710   -49.6760 H      2811  TIP2661     0.2052
 27346 OH2         -5.6320    30.8500    26.1420 O.3    2812  TIP2662    -0.4105
 27347 H1          -5.2060    31.5060    26.6940 H      2812  TIP2662     0.2052
 27348 H2          -5.8260    30.1250    26.7360 H      2812  TIP2662     0.2052
 27349 OH2          1.0660   -21.6250   -27.1410 O.3    2813  TIP2663    -0.4105
 27350 H1           1.1740   -21.4240   -26.2110 H      2813  TIP2663     0.2052
 27351 H2           0.1330   -21.4920   -27.3080 H      2813  TIP2663     0.2052
 27352 OH2         28.9410    10.0910    20.6960 O.3    2814  TIP2664    -0.4105
 27353 H1          28.2760    10.7450    20.9140 H      2814  TIP2664     0.2052
 27354 H2          29.5610    10.5580    20.1350 H      2814  TIP2664     0.2052
 27355 OH2         30.9960     2.9120    48.6860 O.3    2815  TIP2665    -0.4105
 27356 H1          31.0730     2.1350    49.2400 H      2815  TIP2665     0.2052
 27357 H2          30.2440     3.3860    49.0410 H      2815  TIP2665     0.2052
 27358 OH2         -2.9840    25.1760   -32.0340 O.3    2816  TIP2666    -0.4105
 27359 H1          -2.5750    25.3530   -31.1870 H      2816  TIP2666     0.2052
 27360 H2          -3.3030    24.2760   -31.9630 H      2816  TIP2666     0.2052
 27361 OH2        -16.0570   -30.5350   -48.3290 O.3    2817  TIP2667    -0.4105
 27362 H1         -16.3210   -29.8830   -48.9780 H      2817  TIP2667     0.2052
 27363 H2         -15.5810   -30.0340   -47.6660 H      2817  TIP2667     0.2052
 27364 OH2        -10.2330     2.1400    32.5300 O.3    2818  TIP2668    -0.4105
 27365 H1         -10.1850     1.2270    32.2490 H      2818  TIP2668     0.2052
 27366 H2          -9.6720     2.6110    31.9130 H      2818  TIP2668     0.2052
 27367 OH2          0.9060   -32.6960    53.2740 O.3    2819  TIP2669    -0.4105
 27368 H1           1.4350   -33.4880    53.1740 H      2819  TIP2669     0.2052
 27369 H2           1.2940   -32.0690    52.6640 H      2819  TIP2669     0.2052
 27370 OH2         23.3100   -11.7580    23.8280 O.3    2820  TIP2670    -0.4105
 27371 H1          23.0060   -12.2660    24.5810 H      2820  TIP2670     0.2052
 27372 H2          22.7470   -10.9840    23.8180 H      2820  TIP2670     0.2052
 27373 OH2         19.8470     5.0550   -48.6130 O.3    2821  TIP2671    -0.4105
 27374 H1          19.5040     4.1720   -48.4760 H      2821  TIP2671     0.2052
 27375 H2          20.7740     4.9240   -48.8100 H      2821  TIP2671     0.2052
 27376 OH2        -20.6700    -6.9880   -48.4520 O.3    2822  TIP2672    -0.4105
 27377 H1         -21.5180    -6.9110   -48.8900 H      2822  TIP2672     0.2052
 27378 H2         -20.0430    -6.6260   -49.0790 H      2822  TIP2672     0.2052
 27379 OH2         21.6370    15.8640   -13.6420 O.3    2823  TIP2673    -0.4105
 27380 H1          20.9230    16.3830   -13.2700 H      2823  TIP2673     0.2052
 27381 H2          22.0160    16.4270   -14.3170 H      2823  TIP2673     0.2052
 27382 OH2         23.7640    20.5260   -17.3630 O.3    2824  TIP2674    -0.4105
 27383 H1          24.0690    19.9860   -16.6340 H      2824  TIP2674     0.2052
 27384 H2          23.2820    21.2400   -16.9470 H      2824  TIP2674     0.2052
 27385 OH2        -25.6070    -7.5380    45.3370 O.3    2825  TIP2675    -0.4105
 27386 H1         -26.4020    -7.8570    45.7650 H      2825  TIP2675     0.2052
 27387 H2         -25.1400    -7.0620    46.0240 H      2825  TIP2675     0.2052
 27388 OH2         22.2990    13.8450    36.2290 O.3    2826  TIP2676    -0.4105
 27389 H1          21.5150    14.2350    35.8430 H      2826  TIP2676     0.2052
 27390 H2          22.7060    14.5590    36.7190 H      2826  TIP2676     0.2052
 27391 OH2        -32.7420    -9.9480    43.4130 O.3    2827  TIP2677    -0.4105
 27392 H1         -33.2590    -9.3980    44.0020 H      2827  TIP2677     0.2052
 27393 H2         -32.3820   -10.6320    43.9760 H      2827  TIP2677     0.2052
 27394 OH2          2.3910    31.6930    44.5660 O.3    2828  TIP2678    -0.4105
 27395 H1           3.2440    31.2850    44.7150 H      2828  TIP2678     0.2052
 27396 H2           1.9020    31.0480    44.0550 H      2828  TIP2678     0.2052
 27397 OH2        -13.0580    16.8190    19.4570 O.3    2829  TIP2679    -0.4105
 27398 H1         -13.1900    16.4950    20.3480 H      2829  TIP2679     0.2052
 27399 H2         -13.9360    17.0490    19.1520 H      2829  TIP2679     0.2052
 27400 OH2        -26.0110    21.9980   -54.7500 O.3    2830  TIP2680    -0.4105
 27401 H1         -26.4320    21.6610   -55.5410 H      2830  TIP2680     0.2052
 27402 H2         -25.4200    22.6810   -55.0650 H      2830  TIP2680     0.2052
 27403 OH2        -22.5070    23.1800    20.3350 O.3    2831  TIP2681    -0.4105
 27404 H1         -23.0730    23.9390    20.4760 H      2831  TIP2681     0.2052
 27405 H2         -23.1120    22.4430    20.2480 H      2831  TIP2681     0.2052
 27406 OH2         -6.6020    16.3100   -47.6520 O.3    2832  TIP2682    -0.4105
 27407 H1          -7.1450    15.7740   -48.2300 H      2832  TIP2682     0.2052
 27408 H2          -6.3390    15.7150   -46.9500 H      2832  TIP2682     0.2052
 27409 OH2         25.5810   -11.5700    52.7500 O.3    2833  TIP2683    -0.4105
 27410 H1          26.1870   -12.1650    52.3080 H      2833  TIP2683     0.2052
 27411 H2          25.7120   -11.7420    53.6820 H      2833  TIP2683     0.2052
 27412 OH2        -10.8660   -27.2000   -24.1070 O.3    2834  TIP2684    -0.4105
 27413 H1         -10.2280   -26.4870   -24.0830 H      2834  TIP2684     0.2052
 27414 H2         -10.8760   -27.5450   -23.2150 H      2834  TIP2684     0.2052
 27415 OH2        -22.1300     4.2070   -53.2170 O.3    2835  TIP2685    -0.4105
 27416 H1         -22.1700     4.7600   -52.4360 H      2835  TIP2685     0.2052
 27417 H2         -21.6690     4.7400   -53.8650 H      2835  TIP2685     0.2052
 27418 OH2         26.8790    -9.1050   -24.5260 O.3    2836  TIP2686    -0.4105
 27419 H1          27.3650    -9.4640   -25.2680 H      2836  TIP2686     0.2052
 27420 H2          26.0100    -8.9150   -24.8780 H      2836  TIP2686     0.2052
 27421 OH2        -20.9130   -25.3740   -46.1200 O.3    2837  TIP2687    -0.4105
 27422 H1         -21.5860   -24.9750   -45.5680 H      2837  TIP2687     0.2052
 27423 H2         -20.1880   -24.7490   -46.1020 H      2837  TIP2687     0.2052
 27424 OH2          4.6040    19.6150    37.8060 O.3    2838  TIP2688    -0.4105
 27425 H1           3.8020    19.1210    37.6390 H      2838  TIP2688     0.2052
 27426 H2           4.9210    19.2810    38.6460 H      2838  TIP2688     0.2052
 27427 OH2        -25.9950     9.9230    45.5200 O.3    2839  TIP2689    -0.4105
 27428 H1         -26.3360     9.8730    46.4130 H      2839  TIP2689     0.2052
 27429 H2         -25.1350    10.3320    45.6140 H      2839  TIP2689     0.2052
 27430 OH2        -11.1870   -16.6420   -55.1930 O.3    2840  TIP2690    -0.4105
 27431 H1         -11.9100   -16.0920   -54.8920 H      2840  TIP2690     0.2052
 27432 H2         -11.6020   -17.2990   -55.7510 H      2840  TIP2690     0.2052
 27433 OH2         31.7460   -14.9170   -42.0380 O.3    2841  TIP2691    -0.4105
 27434 H1          31.2690   -15.7460   -41.9980 H      2841  TIP2691     0.2052
 27435 H2          31.3340   -14.4370   -42.7560 H      2841  TIP2691     0.2052
 27436 OH2         21.1550     9.1310   -47.3720 O.3    2842  TIP2692    -0.4105
 27437 H1          20.6770     8.9940   -46.5540 H      2842  TIP2692     0.2052
 27438 H2          20.5860     8.7610   -48.0470 H      2842  TIP2692     0.2052
 27439 OH2         32.0050    -8.6080    38.6030 O.3    2843  TIP2693    -0.4105
 27440 H1          32.4690    -7.7850    38.7600 H      2843  TIP2693     0.2052
 27441 H2          32.0020    -9.0480    39.4530 H      2843  TIP2693     0.2052
 27442 OH2          7.2920    23.5390   -28.0150 O.3    2844  TIP2694    -0.4105
 27443 H1           7.7560    23.8690   -28.7840 H      2844  TIP2694     0.2052
 27444 H2           7.8530    22.8410   -27.6770 H      2844  TIP2694     0.2052
 27445 OH2         -2.3190    11.5470   -47.9300 O.3    2845  TIP2695    -0.4105
 27446 H1          -2.8220    12.1020   -48.5260 H      2845  TIP2695     0.2052
 27447 H2          -1.4510    11.4910   -48.3310 H      2845  TIP2695     0.2052
 27448 OH2        -31.6440    -3.9930    29.8680 O.3    2846  TIP2696    -0.4105
 27449 H1         -32.0970    -4.7640    30.2100 H      2846  TIP2696     0.2052
 27450 H2         -31.1190    -4.3260    29.1400 H      2846  TIP2696     0.2052
 27451 OH2        -11.8240   -28.4960   -43.1610 O.3    2847  TIP2697    -0.4105
 27452 H1         -10.9810   -28.3450   -43.5880 H      2847  TIP2697     0.2052
 27453 H2         -12.4590   -28.0490   -43.7200 H      2847  TIP2697     0.2052
 27454 OH2         19.9100   -17.5370   -23.3110 O.3    2848  TIP2698    -0.4105
 27455 H1          19.5950   -18.2100   -22.7080 H      2848  TIP2698     0.2052
 27456 H2          20.8590   -17.5310   -23.1900 H      2848  TIP2698     0.2052
 27457 OH2          9.3990   -16.4370   -41.2860 O.3    2849  TIP2699    -0.4105
 27458 H1           9.4590   -15.6150   -41.7740 H      2849  TIP2699     0.2052
 27459 H2           8.7150   -16.9330   -41.7340 H      2849  TIP2699     0.2052
 27460 OH2         21.7030   -13.5940   -50.3750 O.3    2850  TIP2700    -0.4105
 27461 H1          21.0090   -13.2610   -49.8060 H      2850  TIP2700     0.2052
 27462 H2          22.4610   -13.0440   -50.1770 H      2850  TIP2700     0.2052
 27463 OH2         29.5380    30.9640    55.0760 O.3    2851  TIP2701    -0.4105
 27464 H1          28.9080    30.3540    55.4600 H      2851  TIP2701     0.2052
 27465 H2          29.2400    31.8280    55.3620 H      2851  TIP2701     0.2052
 27466 OH2         -7.4770    22.6790   -41.0010 O.3    2852  TIP2702    -0.4105
 27467 H1          -7.9800    22.7160   -40.1880 H      2852  TIP2702     0.2052
 27468 H2          -7.1480    23.5700   -41.1210 H      2852  TIP2702     0.2052
 27469 OH2        -18.1270   -14.2080   -34.7050 O.3    2853  TIP2703    -0.4105
 27470 H1         -19.0730   -14.1290   -34.8260 H      2853  TIP2703     0.2052
 27471 H2         -17.8520   -13.3460   -34.3920 H      2853  TIP2703     0.2052
 27472 OH2         17.8550    11.7250   -53.4460 O.3    2854  TIP2704    -0.4105
 27473 H1          17.5590    12.2230   -52.6830 H      2854  TIP2704     0.2052
 27474 H2          17.3440    12.0770   -54.1750 H      2854  TIP2704     0.2052
 27475 OH2        -19.4330   -26.1490    51.7330 O.3    2855  TIP2705    -0.4105
 27476 H1         -20.2920   -26.4220    52.0550 H      2855  TIP2705     0.2052
 27477 H2         -19.6010   -25.3320    51.2620 H      2855  TIP2705     0.2052
 27478 OH2        -32.2640    -2.2150   -36.9390 O.3    2856  TIP2706    -0.4105
 27479 H1         -31.4960    -1.7500   -36.6090 H      2856  TIP2706     0.2052
 27480 H2         -32.7710    -2.4280   -36.1550 H      2856  TIP2706     0.2052
 27481 OH2         22.4880   -23.6260    19.6690 O.3    2857  TIP2707    -0.4105
 27482 H1          21.9020   -23.8290    18.9390 H      2857  TIP2707     0.2052
 27483 H2          22.4380   -22.6740    19.7600 H      2857  TIP2707     0.2052
 27484 OH2         -8.6010   -10.1110    32.0650 O.3    2858  TIP2708    -0.4105
 27485 H1          -8.6230   -10.3430    32.9930 H      2858  TIP2708     0.2052
 27486 H2          -8.0440   -10.7780    31.6640 H      2858  TIP2708     0.2052
 27487 OH2         -8.6510    27.7250   -24.0510 O.3    2859  TIP2709    -0.4105
 27488 H1          -7.8500    28.2240   -24.2120 H      2859  TIP2709     0.2052
 27489 H2          -9.3470    28.3810   -24.0510 H      2859  TIP2709     0.2052
 27490 OH2         32.8340   -25.8160   -40.3840 O.3    2860  TIP2710    -0.4105
 27491 H1          33.4680   -25.3500   -40.9290 H      2860  TIP2710     0.2052
 27492 H2          32.4620   -26.4810   -40.9630 H      2860  TIP2710     0.2052
 27493 OH2        -25.1300   -25.3710    47.5780 O.3    2861  TIP2711    -0.4105
 27494 H1         -25.4000   -26.0710    48.1730 H      2861  TIP2711     0.2052
 27495 H2         -24.2070   -25.5510    47.3990 H      2861  TIP2711     0.2052
 27496 OH2        -18.7960    -3.2440   -22.8150 O.3    2862  TIP2712    -0.4105
 27497 H1         -18.6910    -2.3050   -22.6580 H      2862  TIP2712     0.2052
 27498 H2         -18.1030    -3.6530   -22.2960 H      2862  TIP2712     0.2052
 27499 OH2        -30.5320    21.7920    52.3720 O.3    2863  TIP2713    -0.4105
 27500 H1         -30.8930    20.9270    52.1770 H      2863  TIP2713     0.2052
 27501 H2         -30.5370    22.2490    51.5310 H      2863  TIP2713     0.2052
 27502 OH2        -27.9700   -28.9850    30.7650 O.3    2864  TIP2714    -0.4105
 27503 H1         -28.4050   -28.8850    31.6120 H      2864  TIP2714     0.2052
 27504 H2         -27.2560   -29.6000    30.9320 H      2864  TIP2714     0.2052
 27505 OH2         18.8690   -21.5080    26.9050 O.3    2865  TIP2715    -0.4105
 27506 H1          18.5130   -21.7580    26.0530 H      2865  TIP2715     0.2052
 27507 H2          19.5660   -22.1420    27.0690 H      2865  TIP2715     0.2052
 27508 OH2         32.2410   -32.4000    44.3550 O.3    2866  TIP2716    -0.4105
 27509 H1          31.5680   -33.0500    44.1470 H      2866  TIP2716     0.2052
 27510 H2          33.0680   -32.8430    44.1660 H      2866  TIP2716     0.2052
 27511 OH2        -32.7640     4.1790   -29.4960 O.3    2867  TIP2717    -0.4105
 27512 H1         -31.9380     3.6970   -29.5380 H      2867  TIP2717     0.2052
 27513 H2         -33.1190     4.1240   -30.3830 H      2867  TIP2717     0.2052
 27514 OH2        -23.9940    -4.3580   -38.5100 O.3    2868  TIP2718    -0.4105
 27515 H1         -23.4180    -4.8810   -37.9520 H      2868  TIP2718     0.2052
 27516 H2         -24.8050    -4.8640   -38.5600 H      2868  TIP2718     0.2052
 27517 OH2         -1.9850     2.6640   -23.7160 O.3    2869  TIP2719    -0.4105
 27518 H1          -2.5820     2.0990   -24.2060 H      2869  TIP2719     0.2052
 27519 H2          -2.5130     2.9960   -22.9890 H      2869  TIP2719     0.2052
 27520 OH2        -12.0500    10.9450   -44.6160 O.3    2870  TIP2720    -0.4105
 27521 H1         -12.6140    10.7600   -43.8650 H      2870  TIP2720     0.2052
 27522 H2         -12.6250    11.3810   -45.2460 H      2870  TIP2720     0.2052
 27523 OH2          0.6540    25.8370   -49.2220 O.3    2871  TIP2721    -0.4105
 27524 H1          -0.0160    26.4350   -49.5520 H      2871  TIP2721     0.2052
 27525 H2           1.3930    25.9510   -49.8200 H      2871  TIP2721     0.2052
 27526 OH2          3.0420   -32.0140   -37.6340 O.3    2872  TIP2722    -0.4105
 27527 H1           3.3040   -32.0940   -36.7170 H      2872  TIP2722     0.2052
 27528 H2           2.4440   -31.2660   -37.6480 H      2872  TIP2722     0.2052
 27529 OH2         19.5370    12.3100   -28.0580 O.3    2873  TIP2723    -0.4105
 27530 H1          20.4400    12.1110   -27.8120 H      2873  TIP2723     0.2052
 27531 H2          19.1210    12.5850   -27.2410 H      2873  TIP2723     0.2052
 27532 OH2         22.4120   -18.3740    32.9350 O.3    2874  TIP2724    -0.4105
 27533 H1          22.8850   -17.8810    32.2650 H      2874  TIP2724     0.2052
 27534 H2          21.6490   -17.8330    33.1380 H      2874  TIP2724     0.2052
 27535 OH2        -16.8780    -0.0530   -55.0250 O.3    2875  TIP2725    -0.4105
 27536 H1         -17.6990    -0.5080   -55.2170 H      2875  TIP2725     0.2052
 27537 H2         -16.5270     0.1800   -55.8850 H      2875  TIP2725     0.2052
 27538 OH2        -19.4540   -10.8630    43.2160 O.3    2876  TIP2726    -0.4105
 27539 H1         -18.8280   -10.9500    42.4970 H      2876  TIP2726     0.2052
 27540 H2         -20.2620   -10.5670    42.7970 H      2876  TIP2726     0.2052
 27541 OH2        -28.5750    16.5130   -22.4940 O.3    2877  TIP2727    -0.4105
 27542 H1         -29.1490    17.2740   -22.4130 H      2877  TIP2727     0.2052
 27543 H2         -27.7220    16.8790   -22.7290 H      2877  TIP2727     0.2052
 27544 OH2         14.7090    13.8240    39.1210 O.3    2878  TIP2728    -0.4105
 27545 H1          15.6280    14.0360    39.2830 H      2878  TIP2728     0.2052
 27546 H2          14.5160    14.2230    38.2720 H      2878  TIP2728     0.2052
 27547 OH2          5.0780    -9.3870   -54.1420 O.3    2879  TIP2729    -0.4105
 27548 H1           5.6910    -8.7390   -54.4900 H      2879  TIP2729     0.2052
 27549 H2           5.4740   -10.2320   -54.3570 H      2879  TIP2729     0.2052
 27550 OH2         29.7130    25.5620    52.1380 O.3    2880  TIP2730    -0.4105
 27551 H1          29.1630    26.2520    52.5090 H      2880  TIP2730     0.2052
 27552 H2          30.5190    25.5940    52.6530 H      2880  TIP2730     0.2052
 27553 OH2         -3.9570    10.5610   -33.4630 O.3    2881  TIP2731    -0.4105
 27554 H1          -3.7900    11.4910   -33.6150 H      2881  TIP2731     0.2052
 27555 H2          -4.8920    10.5140   -33.2640 H      2881  TIP2731     0.2052
 27556 OH2        -28.4610     1.4170   -21.8310 O.3    2882  TIP2732    -0.4105
 27557 H1         -28.8570     0.6890   -22.3100 H      2882  TIP2732     0.2052
 27558 H2         -29.1540     1.7260   -21.2480 H      2882  TIP2732     0.2052
 27559 OH2         18.0000    29.3950    42.6450 O.3    2883  TIP2733    -0.4105
 27560 H1          18.0980    29.7320    43.5350 H      2883  TIP2733     0.2052
 27561 H2          18.7220    28.7750    42.5420 H      2883  TIP2733     0.2052
 27562 OH2        -16.4320    17.0050   -36.3630 O.3    2884  TIP2734    -0.4105
 27563 H1         -16.8120    16.6270   -35.5700 H      2884  TIP2734     0.2052
 27564 H2         -16.4530    16.2920   -37.0020 H      2884  TIP2734     0.2052
 27565 OH2         31.4280    24.9850   -55.0670 O.3    2885  TIP2735    -0.4105
 27566 H1          31.4500    24.6830   -55.9750 H      2885  TIP2735     0.2052
 27567 H2          32.1830    24.5640   -54.6560 H      2885  TIP2735     0.2052
 27568 OH2         10.5430    11.1720   -49.3640 O.3    2886  TIP2736    -0.4105
 27569 H1          10.5580    10.2150   -49.3960 H      2886  TIP2736     0.2052
 27570 H2           9.6230    11.4020   -49.4890 H      2886  TIP2736     0.2052
 27571 OH2         26.1120    20.8710    46.7440 O.3    2887  TIP2737    -0.4105
 27572 H1          26.7880    21.5240    46.9280 H      2887  TIP2737     0.2052
 27573 H2          25.4930    20.9540    47.4690 H      2887  TIP2737     0.2052
 27574 OH2          3.7780     4.2350   -19.1900 O.3    2888  TIP2738    -0.4105
 27575 H1           2.8410     4.2860   -19.0020 H      2888  TIP2738     0.2052
 27576 H2           3.9760     5.0550   -19.6430 H      2888  TIP2738     0.2052
 27577 OH2         31.8390    23.1190    48.5000 O.3    2889  TIP2739    -0.4105
 27578 H1          32.7130    23.4200    48.7480 H      2889  TIP2739     0.2052
 27579 H2          31.9940    22.4630    47.8210 H      2889  TIP2739     0.2052
 27580 OH2        -31.0330    31.4260   -24.4390 O.3    2890  TIP2740    -0.4105
 27581 H1         -31.7290    31.7110   -25.0310 H      2890  TIP2740     0.2052
 27582 H2         -30.6240    32.2390   -24.1410 H      2890  TIP2740     0.2052
 27583 OH2          5.2570   -15.4400    34.5750 O.3    2891  TIP2741    -0.4105
 27584 H1           4.8330   -15.8570    33.8250 H      2891  TIP2741     0.2052
 27585 H2           5.2060   -16.0920    35.2740 H      2891  TIP2741     0.2052
 27586 OH2         21.8800   -14.1000    32.3920 O.3    2892  TIP2742    -0.4105
 27587 H1          21.6000   -13.8410    31.5150 H      2892  TIP2742     0.2052
 27588 H2          22.3780   -13.3490    32.7170 H      2892  TIP2742     0.2052
 27589 OH2        -32.9930   -10.1110    49.1280 O.3    2893  TIP2743    -0.4105
 27590 H1         -32.8690   -11.0180    48.8480 H      2893  TIP2743     0.2052
 27591 H2         -33.2350   -10.1770    50.0520 H      2893  TIP2743     0.2052
 27592 OH2         13.6220   -25.0180    40.5680 O.3    2894  TIP2744    -0.4105
 27593 H1          12.9060   -25.3960    40.0570 H      2894  TIP2744     0.2052
 27594 H2          14.4110   -25.4370    40.2240 H      2894  TIP2744     0.2052
 27595 OH2          8.4560    29.2760    40.4310 O.3    2895  TIP2745    -0.4105
 27596 H1           8.9640    28.5460    40.7850 H      2895  TIP2745     0.2052
 27597 H2           7.6850    28.8640    40.0410 H      2895  TIP2745     0.2052
 27598 OH2        -23.8670   -30.6500   -49.5670 O.3    2896  TIP2746    -0.4105
 27599 H1         -24.7050   -31.0780   -49.3910 H      2896  TIP2746     0.2052
 27600 H2         -23.3490   -30.8040   -48.7770 H      2896  TIP2746     0.2052
 27601 OH2         12.4320     2.2910   -36.1180 O.3    2897  TIP2747    -0.4105
 27602 H1          12.6590     2.7560   -36.9230 H      2897  TIP2747     0.2052
 27603 H2          13.2730     2.0140   -35.7550 H      2897  TIP2747     0.2052
 27604 OH2         14.6110    17.6590    50.7530 O.3    2898  TIP2748    -0.4105
 27605 H1          15.4170    18.1450    50.5790 H      2898  TIP2748     0.2052
 27606 H2          14.5280    17.0580    50.0120 H      2898  TIP2748     0.2052
 27607 OH2        -25.5070     5.1070   -17.3100 O.3    2899  TIP2749    -0.4105
 27608 H1         -25.9170     5.4700   -18.0950 H      2899  TIP2749     0.2052
 27609 H2         -24.9020     5.7880   -17.0180 H      2899  TIP2749     0.2052
 27610 OH2          7.8660    32.3020   -55.2710 O.3    2900  TIP2750    -0.4105
 27611 H1           8.8140    32.4140   -55.3330 H      2900  TIP2750     0.2052
 27612 H2           7.7340    31.3540   -55.3040 H      2900  TIP2750     0.2052
 27613 OH2         -6.4710   -14.5660   -50.8780 O.3    2901  TIP2751    -0.4105
 27614 H1          -5.8710   -15.0690   -51.4290 H      2901  TIP2751     0.2052
 27615 H2          -6.3910   -13.6660   -51.1960 H      2901  TIP2751     0.2052
 27616 OH2         18.3670    23.8710    52.1780 O.3    2902  TIP2752    -0.4105
 27617 H1          18.3170    24.8100    52.0000 H      2902  TIP2752     0.2052
 27618 H2          17.8300    23.4680    51.4950 H      2902  TIP2752     0.2052
 27619 OH2         32.6040    26.3570   -36.3800 O.3    2903  TIP2753    -0.4105
 27620 H1          32.8330    27.1730   -36.8240 H      2903  TIP2753     0.2052
 27621 H2          33.1700    26.3370   -35.6080 H      2903  TIP2753     0.2052
 27622 OH2         26.4630   -29.6640    38.2560 O.3    2904  TIP2754    -0.4105
 27623 H1          26.8260   -29.9620    37.4220 H      2904  TIP2754     0.2052
 27624 H2          27.0780   -28.9980    38.5610 H      2904  TIP2754     0.2052
 27625 OH2         14.0490   -12.7370   -33.7710 O.3    2905  TIP2755    -0.4105
 27626 H1          13.4900   -12.6040   -33.0050 H      2905  TIP2755     0.2052
 27627 H2          13.5790   -12.3100   -34.4870 H      2905  TIP2755     0.2052
 27628 OH2         17.8960   -12.4210   -29.7840 O.3    2906  TIP2756    -0.4105
 27629 H1          17.3390   -11.6480   -29.8810 H      2906  TIP2756     0.2052
 27630 H2          18.1170   -12.6710   -30.6810 H      2906  TIP2756     0.2052
 27631 OH2        -30.2830    -7.1190   -28.8660 O.3    2907  TIP2757    -0.4105
 27632 H1         -30.7850    -7.8450   -28.4960 H      2907  TIP2757     0.2052
 27633 H2         -29.8440    -6.7210   -28.1140 H      2907  TIP2757     0.2052
 27634 OH2         -6.9680     1.1730   -52.9560 O.3    2908  TIP2758    -0.4105
 27635 H1          -7.4630     1.2650   -52.1430 H      2908  TIP2758     0.2052
 27636 H2          -6.4760     0.3590   -52.8470 H      2908  TIP2758     0.2052
 27637 OH2         14.1180    19.8530   -20.6090 O.3    2909  TIP2759    -0.4105
 27638 H1          14.2740    18.9130   -20.6950 H      2909  TIP2759     0.2052
 27639 H2          13.8930    19.9760   -19.6870 H      2909  TIP2759     0.2052
 27640 OH2         -8.7010    -6.2140    48.8430 O.3    2910  TIP2760    -0.4105
 27641 H1          -8.6580    -5.6640    48.0610 H      2910  TIP2760     0.2052
 27642 H2          -7.8200    -6.1730    49.2140 H      2910  TIP2760     0.2052
 27643 OH2         21.3990   -26.1080   -23.6980 O.3    2911  TIP2761    -0.4105
 27644 H1          21.5240   -25.2540   -24.1130 H      2911  TIP2761     0.2052
 27645 H2          20.5870   -26.0150   -23.1990 H      2911  TIP2761     0.2052
 27646 OH2         17.4080   -24.9140    50.8690 O.3    2912  TIP2762    -0.4105
 27647 H1          18.1200   -24.6180    50.3020 H      2912  TIP2762     0.2052
 27648 H2          16.8770   -24.1310    51.0170 H      2912  TIP2762     0.2052
 27649 OH2        -25.9600   -32.3830    51.3870 O.3    2913  TIP2763    -0.4105
 27650 H1         -25.8130   -32.3290    52.3310 H      2913  TIP2763     0.2052
 27651 H2         -26.6760   -33.0110    51.2910 H      2913  TIP2763     0.2052
 27652 OH2        -12.8630   -18.7060   -35.1750 O.3    2914  TIP2764    -0.4105
 27653 H1         -12.4270   -18.7650   -36.0250 H      2914  TIP2764     0.2052
 27654 H2         -12.8040   -17.7800   -34.9390 H      2914  TIP2764     0.2052
 27655 OH2         22.1310    -1.6720   -27.4410 O.3    2915  TIP2765    -0.4105
 27656 H1          21.6810    -0.8800   -27.1470 H      2915  TIP2765     0.2052
 27657 H2          22.9290    -1.3530   -27.8610 H      2915  TIP2765     0.2052
 27658 OH2         -1.1660   -22.9360   -30.8470 O.3    2916  TIP2766    -0.4105
 27659 H1          -0.6350   -23.3930   -31.4990 H      2916  TIP2766     0.2052
 27660 H2          -1.0400   -23.4360   -30.0410 H      2916  TIP2766     0.2052
 27661 OH2         31.1300    25.7470    22.8200 O.3    2917  TIP2767    -0.4105
 27662 H1          30.3950    26.3310    23.0060 H      2917  TIP2767     0.2052
 27663 H2          31.3410    25.9120    21.9010 H      2917  TIP2767     0.2052
 27664 OH2        -13.7110    -2.0920    46.0590 O.3    2918  TIP2768    -0.4105
 27665 H1         -13.2240    -2.1760    45.2390 H      2918  TIP2768     0.2052
 27666 H2         -14.6110    -2.3220    45.8270 H      2918  TIP2768     0.2052
 27667 OH2        -21.4090   -32.6110   -42.6780 O.3    2919  TIP2769    -0.4105
 27668 H1         -22.0360   -31.9820   -43.0340 H      2919  TIP2769     0.2052
 27669 H2         -21.9250   -33.4020   -42.5220 H      2919  TIP2769     0.2052
 27670 OH2          2.5590    28.0200    54.3980 O.3    2920  TIP2770    -0.4105
 27671 H1           2.6030    27.5690    53.5550 H      2920  TIP2770     0.2052
 27672 H2           2.2780    27.3460    55.0170 H      2920  TIP2770     0.2052
 27673 OH2        -21.9290    17.7660   -37.4650 O.3    2921  TIP2771    -0.4105
 27674 H1         -22.5190    17.9790   -36.7420 H      2921  TIP2771     0.2052
 27675 H2         -21.5760    18.6110   -37.7440 H      2921  TIP2771     0.2052
 27676 OH2        -24.1190    23.5150    31.7450 O.3    2922  TIP2772    -0.4105
 27677 H1         -25.0600    23.6860    31.7950 H      2922  TIP2772     0.2052
 27678 H2         -23.9820    22.7630    32.3200 H      2922  TIP2772     0.2052
 27679 OH2          8.2860    21.1310   -26.7700 O.3    2923  TIP2773    -0.4105
 27680 H1           8.3330    20.7880   -25.8780 H      2923  TIP2773     0.2052
 27681 H2           7.4910    20.7410   -27.1360 H      2923  TIP2773     0.2052
 27682 OH2         19.9460     5.2500    43.1070 O.3    2924  TIP2774    -0.4105
 27683 H1          20.5580     5.6100    43.7480 H      2924  TIP2774     0.2052
 27684 H2          19.1160     5.6880    43.2950 H      2924  TIP2774     0.2052
 27685 OH2        -25.4080    23.9300   -21.4480 O.3    2925  TIP2775    -0.4105
 27686 H1         -26.0510    23.2290   -21.3350 H      2925  TIP2775     0.2052
 27687 H2         -25.9210    24.7360   -21.3970 H      2925  TIP2775     0.2052
 27688 OH2        -14.2040   -22.6390    23.2970 O.3    2926  TIP2776    -0.4105
 27689 H1         -14.5360   -22.2540    22.4860 H      2926  TIP2776     0.2052
 27690 H2         -14.9880   -22.8290    23.8120 H      2926  TIP2776     0.2052
 27691 OH2        -29.1950   -12.7850   -33.4690 O.3    2927  TIP2777    -0.4105
 27692 H1         -28.8610   -13.5230   -33.9780 H      2927  TIP2777     0.2052
 27693 H2         -30.0110   -13.1080   -33.0860 H      2927  TIP2777     0.2052
 27694 OH2         21.2150    -6.8420   -30.5620 O.3    2928  TIP2778    -0.4105
 27695 H1          20.3990    -6.3970   -30.3300 H      2928  TIP2778     0.2052
 27696 H2          21.1690    -7.6800   -30.1020 H      2928  TIP2778     0.2052
 27697 OH2        -24.5190   -27.1500   -40.2530 O.3    2929  TIP2779    -0.4105
 27698 H1         -24.0890   -27.8020   -39.6990 H      2929  TIP2779     0.2052
 27699 H2         -25.0890   -27.6620   -40.8260 H      2929  TIP2779     0.2052
 27700 OH2         -3.8850    17.3310   -45.3950 O.3    2930  TIP2780    -0.4105
 27701 H1          -4.5560    17.7700   -44.8720 H      2930  TIP2780     0.2052
 27702 H2          -4.2760    16.4900   -45.6300 H      2930  TIP2780     0.2052
 27703 OH2          7.2660    26.2490    17.1370 O.3    2931  TIP2781    -0.4105
 27704 H1           7.8660    25.5110    17.2420 H      2931  TIP2781     0.2052
 27705 H2           6.3950    25.8520    17.1440 H      2931  TIP2781     0.2052
 27706 OH2        -25.2610    16.9880    18.8190 O.3    2932  TIP2782    -0.4105
 27707 H1         -24.5640    16.5560    19.3140 H      2932  TIP2782     0.2052
 27708 H2         -25.7460    16.2700    18.4120 H      2932  TIP2782     0.2052
 27709 OH2        -17.0720    14.7550    47.0800 O.3    2933  TIP2783    -0.4105
 27710 H1         -17.3290    13.8860    47.3870 H      2933  TIP2783     0.2052
 27711 H2         -16.8980    15.2510    47.8800 H      2933  TIP2783     0.2052
 27712 OH2        -29.6270   -21.6710    54.7040 O.3    2934  TIP2784    -0.4105
 27713 H1         -30.3330   -22.2990    54.8540 H      2934  TIP2784     0.2052
 27714 H2         -28.9340   -22.1830    54.2880 H      2934  TIP2784     0.2052
 27715 OH2        -16.7160    -5.5660    28.8440 O.3    2935  TIP2785    -0.4105
 27716 H1         -16.7480    -4.6100    28.8790 H      2935  TIP2785     0.2052
 27717 H2         -16.3800    -5.7630    27.9700 H      2935  TIP2785     0.2052
 27718 OH2        -30.0920   -17.1000    51.6780 O.3    2936  TIP2786    -0.4105
 27719 H1         -29.6700   -16.3080    52.0110 H      2936  TIP2786     0.2052
 27720 H2         -29.4560   -17.7970    51.8410 H      2936  TIP2786     0.2052
 27721 OH2         -9.2620    -4.0260    40.9460 O.3    2937  TIP2787    -0.4105
 27722 H1          -8.7900    -3.4790    40.3180 H      2937  TIP2787     0.2052
 27723 H2         -10.0690    -4.2700    40.4920 H      2937  TIP2787     0.2052
 27724 OH2         23.5690   -15.2580   -24.3070 O.3    2938  TIP2788    -0.4105
 27725 H1          24.0150   -15.6810   -23.5730 H      2938  TIP2788     0.2052
 27726 H2          24.2700   -14.8320   -24.8000 H      2938  TIP2788     0.2052
 27727 OH2          8.7940    -4.1190    37.7450 O.3    2939  TIP2789    -0.4105
 27728 H1           7.9440    -4.2470    37.3250 H      2939  TIP2789     0.2052
 27729 H2           8.5910    -3.6710    38.5660 H      2939  TIP2789     0.2052
 27730 OH2         17.0570    -3.5860   -48.0160 O.3    2940  TIP2790    -0.4105
 27731 H1          17.2290    -3.0920   -47.2150 H      2940  TIP2790     0.2052
 27732 H2          16.1730    -3.9340   -47.8990 H      2940  TIP2790     0.2052
 27733 OH2        -12.9470    33.0090    25.4660 O.3    2941  TIP2791    -0.4105
 27734 H1         -12.2030    33.6070    25.3980 H      2941  TIP2791     0.2052
 27735 H2         -13.7070    33.5830    25.5670 H      2941  TIP2791     0.2052
 27736 OH2         27.8990    14.5190    32.0280 O.3    2942  TIP2792    -0.4105
 27737 H1          28.3800    14.0580    32.7160 H      2942  TIP2792     0.2052
 27738 H2          27.0130    14.1610    32.0730 H      2942  TIP2792     0.2052
 27739 OH2         29.2860   -10.9250   -50.8230 O.3    2943  TIP2793    -0.4105
 27740 H1          29.4850   -10.8680   -51.7570 H      2943  TIP2793     0.2052
 27741 H2          30.0090   -10.4670   -50.3950 H      2943  TIP2793     0.2052
 27742 OH2        -20.7300     2.2630    25.6980 O.3    2944  TIP2794    -0.4105
 27743 H1         -20.0380     2.8920    25.4940 H      2944  TIP2794     0.2052
 27744 H2         -21.4940     2.5820    25.2180 H      2944  TIP2794     0.2052
 27745 OH2         13.3060    30.0810   -51.5930 O.3    2945  TIP2795    -0.4105
 27746 H1          13.5480    29.1830   -51.3670 H      2945  TIP2795     0.2052
 27747 H2          13.0920    30.4900   -50.7550 H      2945  TIP2795     0.2052
 27748 OH2        -21.3900   -32.3710    39.0830 O.3    2946  TIP2796    -0.4105
 27749 H1         -21.9750   -32.2580    38.3340 H      2946  TIP2796     0.2052
 27750 H2         -21.1180   -33.2870    39.0400 H      2946  TIP2796     0.2052
 27751 OH2         31.5110    16.4560    52.0720 O.3    2947  TIP2797    -0.4105
 27752 H1          30.6380    16.3970    51.6840 H      2947  TIP2797     0.2052
 27753 H2          31.6940    17.3950    52.1080 H      2947  TIP2797     0.2052
 27754 OH2         27.0630     9.9410    32.8780 O.3    2948  TIP2798    -0.4105
 27755 H1          26.2680     9.4160    32.9680 H      2948  TIP2798     0.2052
 27756 H2          27.7570     9.3010    32.7260 H      2948  TIP2798     0.2052
 27757 OH2        -12.0230   -22.0870   -33.0340 O.3    2949  TIP2799    -0.4105
 27758 H1         -11.2310   -22.5620   -33.2850 H      2949  TIP2799     0.2052
 27759 H2         -12.5050   -21.9750   -33.8540 H      2949  TIP2799     0.2052
 27760 OH2         31.1430     3.1240    34.9660 O.3    2950  TIP2800    -0.4105
 27761 H1          31.3820     4.0050    34.6750 H      2950  TIP2800     0.2052
 27762 H2          30.3020     3.2370    35.4080 H      2950  TIP2800     0.2052
 27763 OH2          8.0020    28.0540    50.6880 O.3    2951  TIP2801    -0.4105
 27764 H1           8.6520    28.7010    50.4150 H      2951  TIP2801     0.2052
 27765 H2           8.4110    27.2090    50.5040 H      2951  TIP2801     0.2052
 27766 OH2         21.3020   -26.3670   -39.7440 O.3    2952  TIP2802    -0.4105
 27767 H1          21.0790   -26.7330   -38.8880 H      2952  TIP2802     0.2052
 27768 H2          22.1710   -26.7190   -39.9370 H      2952  TIP2802     0.2052
 27769 OH2        -10.6810   -16.9240    30.6460 O.3    2953  TIP2803    -0.4105
 27770 H1         -11.2090   -16.2700    31.1050 H      2953  TIP2803     0.2052
 27771 H2         -11.3060   -17.3900    30.0900 H      2953  TIP2803     0.2052
 27772 OH2          5.1310    11.4400    31.3630 O.3    2954  TIP2804    -0.4105
 27773 H1           5.9620    11.0030    31.5510 H      2954  TIP2804     0.2052
 27774 H2           5.1020    12.1750    31.9750 H      2954  TIP2804     0.2052
 27775 OH2        -17.8710    13.8920   -26.3170 O.3    2955  TIP2805    -0.4105
 27776 H1         -18.7210    13.7680   -26.7390 H      2955  TIP2805     0.2052
 27777 H2         -18.0340    13.7120   -25.3910 H      2955  TIP2805     0.2052
 27778 OH2         -9.0580    29.4050   -21.0450 O.3    2956  TIP2806    -0.4105
 27779 H1          -9.0010    28.7140   -21.7040 H      2956  TIP2806     0.2052
 27780 H2          -8.1810    29.4440   -20.6620 H      2956  TIP2806     0.2052
 27781 OH2         25.3300   -30.8780    41.7100 O.3    2957  TIP2807    -0.4105
 27782 H1          24.6950   -30.3380    41.2410 H      2957  TIP2807     0.2052
 27783 H2          25.2690   -31.7370    41.2910 H      2957  TIP2807     0.2052
 27784 OH2         31.8580     9.7880    34.6690 O.3    2958  TIP2808    -0.4105
 27785 H1          31.1030     9.6020    35.2270 H      2958  TIP2808     0.2052
 27786 H2          32.3260    10.4890    35.1230 H      2958  TIP2808     0.2052
 27787 OH2         -9.9460    27.3420   -45.1390 O.3    2959  TIP2809    -0.4105
 27788 H1         -10.0730    27.8500   -44.3380 H      2959  TIP2809     0.2052
 27789 H2          -9.0110    27.1340   -45.1460 H      2959  TIP2809     0.2052
 27790 OH2        -32.2840    18.7560   -26.7660 O.3    2960  TIP2810    -0.4105
 27791 H1         -32.3060    19.4140   -27.4610 H      2960  TIP2810     0.2052
 27792 H2         -31.3640    18.7160   -26.5020 H      2960  TIP2810     0.2052
 27793 OH2         15.8390   -10.7910    39.9320 O.3    2961  TIP2811    -0.4105
 27794 H1          16.6890   -10.5020    39.5990 H      2961  TIP2811     0.2052
 27795 H2          15.6140   -10.1490    40.6040 H      2961  TIP2811     0.2052
 27796 OH2        -15.7330    -1.0520   -49.9060 O.3    2962  TIP2812    -0.4105
 27797 H1         -15.5940    -1.2460   -50.8330 H      2962  TIP2812     0.2052
 27798 H2         -16.2960    -0.2780   -49.9040 H      2962  TIP2812     0.2052
 27799 OH2         -3.9650    -6.0040    36.3330 O.3    2963  TIP2813    -0.4105
 27800 H1          -3.7830    -6.0350    35.3940 H      2963  TIP2813     0.2052
 27801 H2          -3.4120    -6.6880    36.7080 H      2963  TIP2813     0.2052
 27802 OH2          3.1220    27.5560    30.4090 O.3    2964  TIP2814    -0.4105
 27803 H1           3.8870    26.9810    30.4460 H      2964  TIP2814     0.2052
 27804 H2           2.7880    27.5680    31.3060 H      2964  TIP2814     0.2052
 27805 OH2        -32.6740    -4.9410    46.8320 O.3    2965  TIP2815    -0.4105
 27806 H1         -33.5240    -5.1940    47.1900 H      2965  TIP2815     0.2052
 27807 H2         -32.8500    -4.7390    45.9140 H      2965  TIP2815     0.2052
 27808 OH2         24.0610    16.4900   -53.9250 O.3    2966  TIP2816    -0.4105
 27809 H1          24.8390    16.9470   -54.2460 H      2966  TIP2816     0.2052
 27810 H2          24.3140    16.1640   -53.0610 H      2966  TIP2816     0.2052
 27811 OH2          0.9950    25.0690    29.6920 O.3    2967  TIP2817    -0.4105
 27812 H1           0.5480    25.6980    29.1260 H      2967  TIP2817     0.2052
 27813 H2           1.5170    25.6100    30.2860 H      2967  TIP2817     0.2052
 27814 OH2        -28.8340    20.2390    54.1890 O.3    2968  TIP2818    -0.4105
 27815 H1         -29.0390    20.9270    53.5560 H      2968  TIP2818     0.2052
 27816 H2         -27.8780    20.1860    54.1840 H      2968  TIP2818     0.2052
 27817 OH2         -7.5550    10.8860   -14.0900 O.3    2969  TIP2819    -0.4105
 27818 H1          -7.2090    10.0250   -13.8530 H      2969  TIP2819     0.2052
 27819 H2          -8.3370    10.9880   -13.5480 H      2969  TIP2819     0.2052
 27820 OH2        -32.7900    29.0740   -45.8030 O.3    2970  TIP2820    -0.4105
 27821 H1         -32.7330    29.7800   -45.1590 H      2970  TIP2820     0.2052
 27822 H2         -32.2260    29.3600   -46.5220 H      2970  TIP2820     0.2052
 27823 OH2          5.7280   -17.5930    30.6590 O.3    2971  TIP2821    -0.4105
 27824 H1           6.3290   -17.3270    29.9630 H      2971  TIP2821     0.2052
 27825 H2           6.2920   -17.9840    31.3260 H      2971  TIP2821     0.2052
 27826 OH2         -2.4240   -25.5840    54.0330 O.3    2972  TIP2822    -0.4105
 27827 H1          -3.1220   -25.1410    54.5150 H      2972  TIP2822     0.2052
 27828 H2          -2.7730   -26.4580    53.8550 H      2972  TIP2822     0.2052
 27829 OH2         15.5790   -31.3370    31.5940 O.3    2973  TIP2823    -0.4105
 27830 H1          14.7330   -30.8910    31.5950 H      2973  TIP2823     0.2052
 27831 H2          16.0980   -30.8700    32.2490 H      2973  TIP2823     0.2052
 27832 OH2         33.0520    -5.5240   -33.7850 O.3    2974  TIP2824    -0.4105
 27833 H1          33.6590    -6.0690   -34.2850 H      2974  TIP2824     0.2052
 27834 H2          32.7050    -4.9020   -34.4240 H      2974  TIP2824     0.2052
 27835 OH2         -8.0330   -12.9770    24.9620 O.3    2975  TIP2825    -0.4105
 27836 H1          -7.8060   -12.0620    24.7950 H      2975  TIP2825     0.2052
 27837 H2          -7.3220   -13.4780    24.5640 H      2975  TIP2825     0.2052
 27838 OH2          8.9220   -30.9170    33.8020 O.3    2976  TIP2826    -0.4105
 27839 H1           8.3100   -30.3030    33.3960 H      2976  TIP2826     0.2052
 27840 H2           8.6030   -31.7810    33.5410 H      2976  TIP2826     0.2052
 27841 OH2        -21.1750    -2.6310   -19.8800 O.3    2977  TIP2827    -0.4105
 27842 H1         -21.5930    -3.4150   -19.5260 H      2977  TIP2827     0.2052
 27843 H2         -21.5280    -2.5500   -20.7660 H      2977  TIP2827     0.2052
 27844 OH2         27.8350    -9.5430    34.8170 O.3    2978  TIP2828    -0.4105
 27845 H1          27.9940    -9.2750    35.7220 H      2978  TIP2828     0.2052
 27846 H2          28.6840    -9.4430    34.3850 H      2978  TIP2828     0.2052
 27847 OH2         13.2060     6.2550   -53.6030 O.3    2979  TIP2829    -0.4105
 27848 H1          13.6600     7.0230   -53.9500 H      2979  TIP2829     0.2052
 27849 H2          13.8350     5.8550   -53.0030 H      2979  TIP2829     0.2052
 27850 OH2         11.6810    -6.2890   -48.0820 O.3    2980  TIP2830    -0.4105
 27851 H1          11.6430    -5.4160   -47.6910 H      2980  TIP2830     0.2052
 27852 H2          11.9380    -6.8640   -47.3620 H      2980  TIP2830     0.2052
 27853 OH2         28.8030   -29.9870    49.8960 O.3    2981  TIP2831    -0.4105
 27854 H1          28.7860   -29.3790    50.6350 H      2981  TIP2831     0.2052
 27855 H2          29.5470   -30.5620    50.0750 H      2981  TIP2831     0.2052
 27856 OH2        -29.1310    23.9130   -35.6890 O.3    2982  TIP2832    -0.4105
 27857 H1         -29.2290    24.7640   -35.2620 H      2982  TIP2832     0.2052
 27858 H2         -29.7730    23.9270   -36.4000 H      2982  TIP2832     0.2052
 27859 OH2          3.5220   -29.0330   -34.8920 O.3    2983  TIP2833    -0.4105
 27860 H1           3.4100   -28.6660   -35.7690 H      2983  TIP2833     0.2052
 27861 H2           3.3490   -29.9690   -35.0000 H      2983  TIP2833     0.2052
 27862 OH2          1.8870     7.0260   -37.4790 O.3    2984  TIP2834    -0.4105
 27863 H1           1.6810     6.6240   -38.3220 H      2984  TIP2834     0.2052
 27864 H2           1.0530     7.3830   -37.1730 H      2984  TIP2834     0.2052
 27865 OH2         31.3570   -20.4650   -38.1240 O.3    2985  TIP2835    -0.4105
 27866 H1          31.2800   -21.2680   -37.6080 H      2985  TIP2835     0.2052
 27867 H2          32.2990   -20.3190   -38.2020 H      2985  TIP2835     0.2052
 27868 OH2          0.5320    21.7720   -55.5600 O.3    2986  TIP2836    -0.4105
 27869 H1           1.1850    22.4720   -55.5510 H      2986  TIP2836     0.2052
 27870 H2          -0.1230    22.0620   -56.1960 H      2986  TIP2836     0.2052
 27871 OH2        -20.8720   -20.2890    38.9470 O.3    2987  TIP2837    -0.4105
 27872 H1         -20.6780   -19.9480    38.0730 H      2987  TIP2837     0.2052
 27873 H2         -21.6600   -20.8190    38.8270 H      2987  TIP2837     0.2052
 27874 OH2         -8.7110   -13.4030    47.4290 O.3    2988  TIP2838    -0.4105
 27875 H1          -8.4750   -14.1150    48.0230 H      2988  TIP2838     0.2052
 27876 H2          -9.2640   -13.8170    46.7660 H      2988  TIP2838     0.2052
 27877 OH2         20.6570    22.5230   -50.0540 O.3    2989  TIP2839    -0.4105
 27878 H1          20.5800    23.3540   -50.5230 H      2989  TIP2839     0.2052
 27879 H2          19.7530    22.2330   -49.9300 H      2989  TIP2839     0.2052
 27880 OH2         -4.9530   -15.1180    33.0110 O.3    2990  TIP2840    -0.4105
 27881 H1          -4.2480   -15.0860    32.3640 H      2990  TIP2840     0.2052
 27882 H2          -4.5800   -15.6030    33.7470 H      2990  TIP2840     0.2052
 27883 OH2          5.3390     4.0830   -42.9380 O.3    2991  TIP2841    -0.4105
 27884 H1           4.6680     4.7240   -43.1740 H      2991  TIP2841     0.2052
 27885 H2           5.2360     3.9640   -41.9940 H      2991  TIP2841     0.2052
 27886 OH2         18.0900     2.7290   -36.0240 O.3    2992  TIP2842    -0.4105
 27887 H1          18.4650     3.0980   -35.2240 H      2992  TIP2842     0.2052
 27888 H2          18.8480     2.5160   -36.5690 H      2992  TIP2842     0.2052
 27889 OH2         13.9120   -23.8700   -53.8790 O.3    2993  TIP2843    -0.4105
 27890 H1          14.7820   -24.2710   -53.8680 H      2993  TIP2843     0.2052
 27891 H2          13.4550   -24.3090   -54.5970 H      2993  TIP2843     0.2052
 27892 OH2        -27.3390    22.2650   -20.3260 O.3    2994  TIP2844    -0.4105
 27893 H1         -27.4170    21.7420   -19.5290 H      2994  TIP2844     0.2052
 27894 H2         -27.5750    21.6640   -21.0320 H      2994  TIP2844     0.2052
 27895 OH2        -17.5930   -18.1830   -38.3000 O.3    2995  TIP2845    -0.4105
 27896 H1         -17.7090   -17.6360   -37.5230 H      2995  TIP2845     0.2052
 27897 H2         -18.1370   -17.7670   -38.9690 H      2995  TIP2845     0.2052
 27898 OH2          4.8780    23.8000   -18.5340 O.3    2996  TIP2846    -0.4105
 27899 H1           5.1490    24.6580   -18.8590 H      2996  TIP2846     0.2052
 27900 H2           5.6740    23.4240   -18.1580 H      2996  TIP2846     0.2052
 27901 OH2         14.2310     8.3910    37.4510 O.3    2997  TIP2847    -0.4105
 27902 H1          14.5790     8.3740    36.5600 H      2997  TIP2847     0.2052
 27903 H2          15.0060     8.4120    38.0110 H      2997  TIP2847     0.2052
 27904 OH2         16.3480    18.5950    29.4190 O.3    2998  TIP2848    -0.4105
 27905 H1          16.8780    17.8940    29.7980 H      2998  TIP2848     0.2052
 27906 H2          15.6950    18.7920    30.0910 H      2998  TIP2848     0.2052
 27907 OH2        -15.4980    -5.5610    26.3080 O.3    2999  TIP2849    -0.4105
 27908 H1         -14.6670    -5.1640    26.0500 H      2999  TIP2849     0.2052
 27909 H2         -15.2900    -6.4840    26.4510 H      2999  TIP2849     0.2052
 27910 OH2        -16.5760   -26.0130   -34.7370 O.3    3000  TIP2850    -0.4105
 27911 H1         -17.4530   -25.8010   -35.0550 H      3000  TIP2850     0.2052
 27912 H2         -16.5390   -26.9690   -34.7530 H      3000  TIP2850     0.2052
 27913 OH2        -30.7220    -2.8740   -51.8510 O.3    3001  TIP2851    -0.4105
 27914 H1         -31.4480    -2.3980   -52.2540 H      3001  TIP2851     0.2052
 27915 H2         -30.1440    -3.0940   -52.5820 H      3001  TIP2851     0.2052
 27916 OH2         -2.8790   -11.2660   -20.2600 O.3    3002  TIP2852    -0.4105
 27917 H1          -2.3250   -11.1930   -21.0380 H      3002  TIP2852     0.2052
 27918 H2          -3.7670   -11.1150   -20.5830 H      3002  TIP2852     0.2052
 27919 OH2         18.8710   -32.8140   -54.2170 O.3    3003  TIP2853    -0.4105
 27920 H1          18.5210   -33.7050   -54.1990 H      3003  TIP2853     0.2052
 27921 H2          18.2060   -32.3060   -54.6820 H      3003  TIP2853     0.2052
 27922 OH2        -21.4610     3.8350   -42.9280 O.3    3004  TIP2854    -0.4105
 27923 H1         -21.4990     4.7750   -42.7490 H      3004  TIP2854     0.2052
 27924 H2         -22.1180     3.6940   -43.6100 H      3004  TIP2854     0.2052
 27925 OH2         24.9620    21.7730   -42.0200 O.3    3005  TIP2855    -0.4105
 27926 H1          24.3140    21.6180   -42.7070 H      3005  TIP2855     0.2052
 27927 H2          25.3860    22.5940   -42.2710 H      3005  TIP2855     0.2052
 27928 OH2         27.7330    10.9420   -30.7980 O.3    3006  TIP2856    -0.4105
 27929 H1          28.2070    10.1100   -30.8030 H      3006  TIP2856     0.2052
 27930 H2          28.3680    11.5810   -31.1220 H      3006  TIP2856     0.2052
 27931 OH2        -19.8290    21.6180   -21.3070 O.3    3007  TIP2857    -0.4105
 27932 H1         -19.4190    20.9160   -21.8120 H      3007  TIP2857     0.2052
 27933 H2         -20.7660    21.4280   -21.3510 H      3007  TIP2857     0.2052
 27934 OH2         17.0740    31.9520    25.7910 O.3    3008  TIP2858    -0.4105
 27935 H1          17.0260    31.0400    25.5060 H      3008  TIP2858     0.2052
 27936 H2          17.1050    31.9040    26.7460 H      3008  TIP2858     0.2052
 27937 OH2          5.2020    14.4020    47.3020 O.3    3009  TIP2859    -0.4105
 27938 H1           5.2800    14.6540    46.3820 H      3009  TIP2859     0.2052
 27939 H2           4.4860    13.7680    47.3180 H      3009  TIP2859     0.2052
 27940 OH2         -9.0240   -25.0860   -23.8920 O.3    3010  TIP2860    -0.4105
 27941 H1          -8.7040   -25.1980   -22.9960 H      3010  TIP2860     0.2052
 27942 H2          -9.1660   -24.1440   -23.9810 H      3010  TIP2860     0.2052
 27943 OH2         29.6800    20.5260   -27.3960 O.3    3011  TIP2861    -0.4105
 27944 H1          29.6980    19.7730   -26.8050 H      3011  TIP2861     0.2052
 27945 H2          29.1540    20.2340   -28.1410 H      3011  TIP2861     0.2052
 27946 OH2         -8.7030     3.6230    30.7500 O.3    3012  TIP2862    -0.4105
 27947 H1          -7.7860     3.4290    30.9440 H      3012  TIP2862     0.2052
 27948 H2          -8.8840     3.1440    29.9420 H      3012  TIP2862     0.2052
 27949 OH2        -18.9850   -24.8780   -51.0010 O.3    3013  TIP2863    -0.4105
 27950 H1         -19.6190   -24.2260   -50.7030 H      3013  TIP2863     0.2052
 27951 H2         -18.1390   -24.5420   -50.7070 H      3013  TIP2863     0.2052
 27952 OH2        -26.0800    32.7570    35.7870 O.3    3014  TIP2864    -0.4105
 27953 H1         -26.6660    33.4040    36.1790 H      3014  TIP2864     0.2052
 27954 H2         -26.6560    32.0370    35.5290 H      3014  TIP2864     0.2052
 27955 OH2         12.3180     2.8080    36.3640 O.3    3015  TIP2865    -0.4105
 27956 H1          11.5220     3.2420    36.6720 H      3015  TIP2865     0.2052
 27957 H2          13.0150     3.4430    36.5250 H      3015  TIP2865     0.2052
 27958 OH2        -14.3550    27.8130   -39.4460 O.3    3016  TIP2866    -0.4105
 27959 H1         -13.9930    28.6310   -39.7880 H      3016  TIP2866     0.2052
 27960 H2         -14.7900    27.4100   -40.1970 H      3016  TIP2866     0.2052
 27961 OH2         32.6190    -4.0280    18.0540 O.3    3017  TIP2867    -0.4105
 27962 H1          32.0500    -3.5070    18.6200 H      3017  TIP2867     0.2052
 27963 H2          33.4890    -3.6450    18.1690 H      3017  TIP2867     0.2052
 27964 OH2        -25.2490    -8.1050   -27.5710 O.3    3018  TIP2868    -0.4105
 27965 H1         -25.5070    -7.4860   -28.2550 H      3018  TIP2868     0.2052
 27966 H2         -25.9970    -8.6960   -27.4890 H      3018  TIP2868     0.2052
 27967 OH2          3.6220   -17.5240    41.6640 O.3    3019  TIP2869    -0.4105
 27968 H1           3.3230   -16.6210    41.7710 H      3019  TIP2869     0.2052
 27969 H2           4.5770   -17.4610    41.6550 H      3019  TIP2869     0.2052
 27970 OH2         -7.3860     0.5910   -31.4340 O.3    3020  TIP2870    -0.4105
 27971 H1          -7.7400     1.3100   -30.9100 H      3020  TIP2870     0.2052
 27972 H2          -8.1580     0.1470   -31.7850 H      3020  TIP2870     0.2052
 27973 OH2         15.1390    -6.8660    30.1830 O.3    3021  TIP2871    -0.4105
 27974 H1          14.3780    -6.4090    30.5420 H      3021  TIP2871     0.2052
 27975 H2          15.8470    -6.2240    30.2270 H      3021  TIP2871     0.2052
 27976 OH2         24.4900   -31.7950   -27.9320 O.3    3022  TIP2872    -0.4105
 27977 H1          24.7240   -31.3470   -27.1180 H      3022  TIP2872     0.2052
 27978 H2          24.0170   -32.5770   -27.6480 H      3022  TIP2872     0.2052
 27979 OH2         27.4530   -28.2960    44.7320 O.3    3023  TIP2873    -0.4105
 27980 H1          27.6950   -28.6160    43.8630 H      3023  TIP2873     0.2052
 27981 H2          26.4980   -28.3550    44.7530 H      3023  TIP2873     0.2052
 27982 OH2         10.4280    21.4400   -47.4610 O.3    3024  TIP2874    -0.4105
 27983 H1          11.2410    21.0310   -47.1650 H      3024  TIP2874     0.2052
 27984 H2          10.4460    21.3500   -48.4140 H      3024  TIP2874     0.2052
 27985 OH2         -3.6990     2.4660    50.2240 O.3    3025  TIP2875    -0.4105
 27986 H1          -3.3530     1.8850    49.5470 H      3025  TIP2875     0.2052
 27987 H2          -4.1540     3.1550    49.7390 H      3025  TIP2875     0.2052
 27988 OH2        -28.2500    11.6500    45.4120 O.3    3026  TIP2876    -0.4105
 27989 H1         -27.6760    11.1170    45.9630 H      3026  TIP2876     0.2052
 27990 H2         -27.6920    12.3650    45.1060 H      3026  TIP2876     0.2052
 27991 OH2        -24.6180     1.0260    36.0060 O.3    3027  TIP2877    -0.4105
 27992 H1         -23.7840     0.5750    36.1350 H      3027  TIP2877     0.2052
 27993 H2         -24.7400     1.0390    35.0570 H      3027  TIP2877     0.2052
 27994 OH2         31.7310   -18.4250   -27.4190 O.3    3028  TIP2878    -0.4105
 27995 H1          32.5280   -18.6960   -27.8730 H      3028  TIP2878     0.2052
 27996 H2          32.0400   -18.0630   -26.5880 H      3028  TIP2878     0.2052
 27997 OH2        -12.2220    12.7080    38.9870 O.3    3029  TIP2879    -0.4105
 27998 H1         -12.3400    12.0240    38.3270 H      3029  TIP2879     0.2052
 27999 H2         -11.3870    12.4980    39.4030 H      3029  TIP2879     0.2052
 28000 OH2        -29.0310    14.0140    43.0120 O.3    3030  TIP2880    -0.4105
 28001 H1         -28.7900    14.1020    42.0900 H      3030  TIP2880     0.2052
 28002 H2         -29.7010    13.3310    43.0210 H      3030  TIP2880     0.2052
 28003 OH2        -24.5130    14.2820    53.2020 O.3    3031  TIP2881    -0.4105
 28004 H1         -25.1570    13.5800    53.1000 H      3031  TIP2881     0.2052
 28005 H2         -24.2950    14.5380    52.3060 H      3031  TIP2881     0.2052
 28006 OH2        -12.5090    11.4290   -52.4520 O.3    3032  TIP2882    -0.4105
 28007 H1         -12.3670    12.3760   -52.4370 H      3032  TIP2882     0.2052
 28008 H2         -13.3620    11.3080   -52.0370 H      3032  TIP2882     0.2052
 28009 OH2          6.4420   -20.8050   -42.2260 O.3    3033  TIP2883    -0.4105
 28010 H1           6.0990   -21.6830   -42.0610 H      3033  TIP2883     0.2052
 28011 H2           7.3840   -20.9340   -42.3390 H      3033  TIP2883     0.2052
 28012 OH2        -21.3030    11.0810    55.2480 O.3    3034  TIP2884    -0.4105
 28013 H1         -22.2010    10.7680    55.1390 H      3034  TIP2884     0.2052
 28014 H2         -21.3870    12.0320    55.3220 H      3034  TIP2884     0.2052
 28015 OH2         -7.4840    -2.1030    49.2180 O.3    3035  TIP2885    -0.4105
 28016 H1          -8.4040    -2.1790    48.9640 H      3035  TIP2885     0.2052
 28017 H2          -7.2440    -1.2060    48.9850 H      3035  TIP2885     0.2052
 28018 OH2        -31.6680    18.2140   -37.8720 O.3    3036  TIP2886    -0.4105
 28019 H1         -32.1030    19.0420   -38.0760 H      3036  TIP2886     0.2052
 28020 H2         -32.3780    17.6290   -37.6090 H      3036  TIP2886     0.2052
 28021 OH2         13.5480   -25.0170    26.0540 O.3    3037  TIP2887    -0.4105
 28022 H1          13.7200   -25.7020    25.4070 H      3037  TIP2887     0.2052
 28023 H2          12.5950   -25.0060    26.1440 H      3037  TIP2887     0.2052
 28024 OH2        -27.3300    25.6460    33.3360 O.3    3038  TIP2888    -0.4105
 28025 H1         -27.0920    25.6960    32.4100 H      3038  TIP2888     0.2052
 28026 H2         -27.2950    24.7120    33.5430 H      3038  TIP2888     0.2052
 28027 OH2         22.8920    15.4480   -50.2050 O.3    3039  TIP2889    -0.4105
 28028 H1          23.6820    15.5220   -49.6690 H      3039  TIP2889     0.2052
 28029 H2          22.7250    16.3390   -50.5100 H      3039  TIP2889     0.2052
 28030 OH2        -27.5210   -27.4090    47.3610 O.3    3040  TIP2890    -0.4105
 28031 H1         -28.2260   -27.6920    47.9430 H      3040  TIP2890     0.2052
 28032 H2         -27.4060   -26.4790    47.5570 H      3040  TIP2890     0.2052
 28033 OH2         -2.5600     2.0250   -41.7130 O.3    3041  TIP2891    -0.4105
 28034 H1          -3.4240     2.1780   -41.3310 H      3041  TIP2891     0.2052
 28035 H2          -2.6230     2.3790   -42.6000 H      3041  TIP2891     0.2052
 28036 OH2         29.7320    -9.3990    43.8330 O.3    3042  TIP2892    -0.4105
 28037 H1          29.5150    -8.7480    43.1650 H      3042  TIP2892     0.2052
 28038 H2          28.9750    -9.9850    43.8520 H      3042  TIP2892     0.2052
 28039 OH2          4.7900   -28.5560   -50.7730 O.3    3043  TIP2893    -0.4105
 28040 H1           3.9470   -28.9420   -51.0130 H      3043  TIP2893     0.2052
 28041 H2           5.1580   -29.1630   -50.1310 H      3043  TIP2893     0.2052
 28042 OH2         27.7030   -18.3100    28.2740 O.3    3044  TIP2894    -0.4105
 28043 H1          27.8240   -18.8800    27.5150 H      3044  TIP2894     0.2052
 28044 H2          27.5120   -18.9100    28.9960 H      3044  TIP2894     0.2052
 28045 OH2        -24.4330    28.9200    53.3860 O.3    3045  TIP2895    -0.4105
 28046 H1         -24.0370    28.6420    54.2120 H      3045  TIP2895     0.2052
 28047 H2         -24.0450    29.7780    53.2110 H      3045  TIP2895     0.2052
 28048 OH2         12.6020   -29.5040    14.7580 O.3    3046  TIP2896    -0.4105
 28049 H1          12.6790   -29.4140    15.7070 H      3046  TIP2896     0.2052
 28050 H2          13.2920   -28.9420    14.4060 H      3046  TIP2896     0.2052
 28051 OH2        -13.5550    -7.6050   -47.8990 O.3    3047  TIP2897    -0.4105
 28052 H1         -13.6010    -8.0960   -48.7190 H      3047  TIP2897     0.2052
 28053 H2         -13.5300    -6.6870   -48.1690 H      3047  TIP2897     0.2052
 28054 OH2         16.0940   -28.1810    28.2460 O.3    3048  TIP2898    -0.4105
 28055 H1          15.8020   -27.3100    28.5160 H      3048  TIP2898     0.2052
 28056 H2          17.0260   -28.2010    28.4650 H      3048  TIP2898     0.2052
 28057 OH2        -24.2590    27.4280   -50.0570 O.3    3049  TIP2899    -0.4105
 28058 H1         -24.7540    27.7730   -49.3150 H      3049  TIP2899     0.2052
 28059 H2         -24.7970    27.6340   -50.8220 H      3049  TIP2899     0.2052
 28060 OH2        -16.1690   -18.6560    47.1830 O.3    3050  TIP2900    -0.4105
 28061 H1         -16.5420   -18.0770    47.8470 H      3050  TIP2900     0.2052
 28062 H2         -15.4290   -19.0770    47.6200 H      3050  TIP2900     0.2052
 28063 OH2        -15.3930    17.1830   -46.3870 O.3    3051  TIP2901    -0.4105
 28064 H1         -14.9440    17.1700   -45.5420 H      3051  TIP2901     0.2052
 28065 H2         -16.0080    16.4500   -46.3440 H      3051  TIP2901     0.2052
 28066 OH2        -32.7070     5.2650   -45.8450 O.3    3052  TIP2902    -0.4105
 28067 H1         -32.9310     4.8660   -45.0040 H      3052  TIP2902     0.2052
 28068 H2         -32.0610     4.6710   -46.2270 H      3052  TIP2902     0.2052
 28069 OH2        -14.1040    -3.9230    53.8320 O.3    3053  TIP2903    -0.4105
 28070 H1         -13.6980    -4.7840    53.9270 H      3053  TIP2903     0.2052
 28071 H2         -13.3890    -3.3480    53.5600 H      3053  TIP2903     0.2052
 28072 OH2          4.3810    -9.2930   -28.4690 O.3    3054  TIP2904    -0.4105
 28073 H1           3.9310    -9.0910   -29.2890 H      3054  TIP2904     0.2052
 28074 H2           5.0280    -9.9570   -28.7080 H      3054  TIP2904     0.2052
 28075 OH2        -30.8060    30.7390    31.9710 O.3    3055  TIP2905    -0.4105
 28076 H1         -31.0870    31.4220    32.5800 H      3055  TIP2905     0.2052
 28077 H2         -30.2860    31.2020    31.3140 H      3055  TIP2905     0.2052
 28078 OH2         -4.9180   -27.9560    53.8690 O.3    3056  TIP2906    -0.4105
 28079 H1          -5.0890   -28.0760    54.8030 H      3056  TIP2906     0.2052
 28080 H2          -4.1910   -28.5500    53.6800 H      3056  TIP2906     0.2052
 28081 OH2        -15.2590    13.1460   -55.2320 O.3    3057  TIP2907    -0.4105
 28082 H1         -15.6530    14.0180   -55.2740 H      3057  TIP2907     0.2052
 28083 H2         -14.4950    13.2560   -54.6660 H      3057  TIP2907     0.2052
 28084 OH2         20.5590    12.3010    22.6330 O.3    3058  TIP2908    -0.4105
 28085 H1          20.0400    12.8900    23.1810 H      3058  TIP2908     0.2052
 28086 H2          19.9920    11.5430    22.4910 H      3058  TIP2908     0.2052
 28087 OH2         -3.2380   -30.6430   -37.5700 O.3    3059  TIP2909    -0.4105
 28088 H1          -3.4870   -31.4940   -37.9300 H      3059  TIP2909     0.2052
 28089 H2          -2.7200   -30.8540   -36.7930 H      3059  TIP2909     0.2052
 28090 OH2        -16.8970     4.4400    27.4080 O.3    3060  TIP2910    -0.4105
 28091 H1         -17.6630     4.4060    26.8360 H      3060  TIP2910     0.2052
 28092 H2         -16.1910     4.7600    26.8460 H      3060  TIP2910     0.2052
 28093 OH2         28.4860   -21.7110   -29.9770 O.3    3061  TIP2911    -0.4105
 28094 H1          28.0260   -22.1080   -29.2370 H      3061  TIP2911     0.2052
 28095 H2          29.4140   -21.8390   -29.7790 H      3061  TIP2911     0.2052
 28096 OH2         14.9990     8.6580    34.8920 O.3    3062  TIP2912    -0.4105
 28097 H1          15.7310     9.0360    34.4040 H      3062  TIP2912     0.2052
 28098 H2          14.2180     9.0080    34.4640 H      3062  TIP2912     0.2052
 28099 OH2         14.4130    30.7730   -35.3320 O.3    3063  TIP2913    -0.4105
 28100 H1          15.0100    30.4410   -36.0020 H      3063  TIP2913     0.2052
 28101 H2          13.5720    30.3640   -35.5360 H      3063  TIP2913     0.2052
 28102 OH2        -31.3330   -19.6230    22.2250 O.3    3064  TIP2914    -0.4105
 28103 H1         -31.4730   -18.6940    22.0430 H      3064  TIP2914     0.2052
 28104 H2         -30.8190   -19.9390    21.4820 H      3064  TIP2914     0.2052
 28105 OH2        -32.1800    23.6310   -34.6600 O.3    3065  TIP2915    -0.4105
 28106 H1         -31.5190    23.2030   -34.1160 H      3065  TIP2915     0.2052
 28107 H2         -31.9810    24.5640   -34.5910 H      3065  TIP2915     0.2052
 28108 OH2         -0.6160    -1.6550   -22.5990 O.3    3066  TIP2916    -0.4105
 28109 H1           0.1990    -2.0160   -22.2490 H      3066  TIP2916     0.2052
 28110 H2          -1.0190    -1.2070   -21.8550 H      3066  TIP2916     0.2052
 28111 OH2         -1.9820   -32.2270    22.0890 O.3    3067  TIP2917    -0.4105
 28112 H1          -1.9780   -32.7630    21.2950 H      3067  TIP2917     0.2052
 28113 H2          -1.1530   -31.7480    22.0580 H      3067  TIP2917     0.2052
 28114 OH2        -32.7680     8.4680   -21.1190 O.3    3068  TIP2918    -0.4105
 28115 H1         -32.5830     9.1640   -20.4880 H      3068  TIP2918     0.2052
 28116 H2         -31.9100     8.2260   -21.4670 H      3068  TIP2918     0.2052
 28117 OH2         18.5380    22.6690   -39.5420 O.3    3069  TIP2919    -0.4105
 28118 H1          18.0160    22.8240   -40.3290 H      3069  TIP2919     0.2052
 28119 H2          19.4300    22.5400   -39.8670 H      3069  TIP2919     0.2052
 28120 OH2        -18.6570     3.3330   -42.7450 O.3    3070  TIP2920    -0.4105
 28121 H1         -19.5540     3.5990   -42.9460 H      3070  TIP2920     0.2052
 28122 H2         -18.7550     2.6100   -42.1240 H      3070  TIP2920     0.2052
 28123 OH2          9.2760     8.4720    29.5630 O.3    3071  TIP2921    -0.4105
 28124 H1           9.5710     7.6590    29.1520 H      3071  TIP2921     0.2052
 28125 H2           8.4780     8.2280    30.0320 H      3071  TIP2921     0.2052
 28126 OH2          1.3400    27.3080   -34.0200 O.3    3072  TIP2922    -0.4105
 28127 H1           1.4300    26.8500   -33.1840 H      3072  TIP2922     0.2052
 28128 H2           1.9380    28.0520   -33.9520 H      3072  TIP2922     0.2052
 28129 OH2         10.6060    -3.0050   -42.3150 O.3    3073  TIP2923    -0.4105
 28130 H1          10.7670    -2.0780   -42.4910 H      3073  TIP2923     0.2052
 28131 H2          10.6020    -3.0710   -41.3600 H      3073  TIP2923     0.2052
 28132 OH2          4.3760    20.3690    25.9630 O.3    3074  TIP2924    -0.4105
 28133 H1           3.4890    20.3940    26.3210 H      3074  TIP2924     0.2052
 28134 H2           4.9420    20.2840    26.7310 H      3074  TIP2924     0.2052
 28135 OH2         25.2150    12.1420   -40.8280 O.3    3075  TIP2925    -0.4105
 28136 H1          24.4600    11.9050   -41.3660 H      3075  TIP2925     0.2052
 28137 H2          25.2050    13.0990   -40.8080 H      3075  TIP2925     0.2052
 28138 OH2        -28.5770   -15.5450   -21.7210 O.3    3076  TIP2926    -0.4105
 28139 H1         -28.8720   -16.0670   -22.4670 H      3076  TIP2926     0.2052
 28140 H2         -28.7030   -16.1160   -20.9640 H      3076  TIP2926     0.2052
 28141 OH2          4.1470    24.7810    31.3860 O.3    3077  TIP2927    -0.4105
 28142 H1           3.6510    24.3260    32.0670 H      3077  TIP2927     0.2052
 28143 H2           3.5200    24.9020    30.6730 H      3077  TIP2927     0.2052
 28144 OH2        -29.1580    -4.1480    32.3100 O.3    3078  TIP2928    -0.4105
 28145 H1         -28.3260    -4.2070    32.7790 H      3078  TIP2928     0.2052
 28146 H2         -29.4230    -5.0570    32.1740 H      3078  TIP2928     0.2052
 28147 OH2         11.4200   -31.9820    26.0810 O.3    3079  TIP2929    -0.4105
 28148 H1          11.6070   -31.7840    26.9980 H      3079  TIP2929     0.2052
 28149 H2          12.2380   -31.7880    25.6220 H      3079  TIP2929     0.2052
 28150 OH2        -17.8310   -13.8170   -53.0430 O.3    3080  TIP2930    -0.4105
 28151 H1         -18.4840   -13.7510   -53.7400 H      3080  TIP2930     0.2052
 28152 H2         -17.7090   -14.7580   -52.9160 H      3080  TIP2930     0.2052
 28153 OH2          6.3970    14.4290   -39.9910 O.3    3081  TIP2931    -0.4105
 28154 H1           6.9180    13.8200   -40.5150 H      3081  TIP2931     0.2052
 28155 H2           6.4740    15.2660   -40.4490 H      3081  TIP2931     0.2052
 28156 OH2        -29.9400   -17.0800    54.9110 O.3    3082  TIP2932    -0.4105
 28157 H1         -29.3450   -17.4470    55.5650 H      3082  TIP2932     0.2052
 28158 H2         -30.4280   -17.8330    54.5810 H      3082  TIP2932     0.2052
 28159 OH2          6.2360     5.2060    22.3250 O.3    3083  TIP2933    -0.4105
 28160 H1           6.7490     5.2300    21.5170 H      3083  TIP2933     0.2052
 28161 H2           6.7010     5.7920    22.9220 H      3083  TIP2933     0.2052
 28162 OH2          4.5130    12.3450   -34.7270 O.3    3084  TIP2934    -0.4105
 28163 H1           4.5220    11.5800   -35.3030 H      3084  TIP2934     0.2052
 28164 H2           3.5850    12.5230   -34.5790 H      3084  TIP2934     0.2052
 28165 OH2         27.6520   -32.6990    42.4610 O.3    3085  TIP2935    -0.4105
 28166 H1          27.2010   -33.4120    42.9120 H      3085  TIP2935     0.2052
 28167 H2          26.9620   -32.2470    41.9760 H      3085  TIP2935     0.2052
 28168 OH2         27.7750     8.3170   -27.5510 O.3    3086  TIP2936    -0.4105
 28169 H1          28.7140     8.3730   -27.7270 H      3086  TIP2936     0.2052
 28170 H2          27.4090     7.9050   -28.3340 H      3086  TIP2936     0.2052
 28171 OH2        -32.8290    -9.6140    52.0200 O.3    3087  TIP2937    -0.4105
 28172 H1         -31.9740   -10.0070    51.8480 H      3087  TIP2937     0.2052
 28173 H2         -32.6350    -8.8350    52.5410 H      3087  TIP2937     0.2052
 28174 OH2         18.1890    15.2610   -32.3050 O.3    3088  TIP2938    -0.4105
 28175 H1          19.0810    15.5210   -32.5320 H      3088  TIP2938     0.2052
 28176 H2          18.2730    14.8350   -31.4520 H      3088  TIP2938     0.2052
 28177 OH2        -11.5760    -3.8550   -50.2640 O.3    3089  TIP2939    -0.4105
 28178 H1         -12.4340    -3.5490   -49.9710 H      3089  TIP2939     0.2052
 28179 H2         -11.0990    -4.0410   -49.4550 H      3089  TIP2939     0.2052
 28180 OH2         20.4740   -12.1740    42.5600 O.3    3090  TIP2940    -0.4105
 28181 H1          20.2320   -11.4740    43.1670 H      3090  TIP2940     0.2052
 28182 H2          20.2630   -12.9820    43.0300 H      3090  TIP2940     0.2052
 28183 OH2          1.1520   -11.4170   -16.0580 O.3    3091  TIP2941    -0.4105
 28184 H1           0.6430   -12.1870   -15.8050 H      3091  TIP2941     0.2052
 28185 H2           0.5310   -10.8640   -16.5330 H      3091  TIP2941     0.2052
 28186 OH2         -8.0500    29.5520   -46.1770 O.3    3092  TIP2942    -0.4105
 28187 H1          -8.1480    29.9040   -45.2920 H      3092  TIP2942     0.2052
 28188 H2          -7.7830    30.3030   -46.7060 H      3092  TIP2942     0.2052
 28189 OH2          9.2020   -19.8800    26.4370 O.3    3093  TIP2943    -0.4105
 28190 H1           8.6530   -20.6480    26.5930 H      3093  TIP2943     0.2052
 28191 H2           9.0320   -19.6440    25.5250 H      3093  TIP2943     0.2052
 28192 OH2        -17.9830    20.5630   -42.3150 O.3    3094  TIP2944    -0.4105
 28193 H1         -18.8700    20.4210   -41.9840 H      3094  TIP2944     0.2052
 28194 H2         -18.1080    20.8860   -43.2070 H      3094  TIP2944     0.2052
 28195 OH2         24.4050    17.8750   -40.3510 O.3    3095  TIP2945    -0.4105
 28196 H1          25.2980    17.7150   -40.0450 H      3095  TIP2945     0.2052
 28197 H2          24.1470    18.6900   -39.9210 H      3095  TIP2945     0.2052
 28198 OH2        -27.6110   -25.6300    25.7780 O.3    3096  TIP2946    -0.4105
 28199 H1         -26.8990   -26.2150    25.5190 H      3096  TIP2946     0.2052
 28200 H2         -28.3820   -26.1950    25.8220 H      3096  TIP2946     0.2052
 28201 OH2          9.6170    32.3980   -45.8130 O.3    3097  TIP2947    -0.4105
 28202 H1           8.7680    32.0900   -46.1310 H      3097  TIP2947     0.2052
 28203 H2           9.4470    32.6900   -44.9180 H      3097  TIP2947     0.2052
 28204 OH2        -17.9240   -23.2950    52.7590 O.3    3098  TIP2948    -0.4105
 28205 H1         -17.9930   -23.1390    53.7010 H      3098  TIP2948     0.2052
 28206 H2         -18.2870   -24.1710    52.6340 H      3098  TIP2948     0.2052
 28207 OH2         -1.1420    21.3940   -43.2090 O.3    3099  TIP2949    -0.4105
 28208 H1          -1.0090    21.4190   -44.1570 H      3099  TIP2949     0.2052
 28209 H2          -2.0120    21.0100   -43.1000 H      3099  TIP2949     0.2052
 28210 OH2         16.1830   -24.9910   -40.8580 O.3    3100  TIP2950    -0.4105
 28211 H1          16.6960   -25.7100   -41.2270 H      3100  TIP2950     0.2052
 28212 H2          15.3090   -25.3600   -40.7310 H      3100  TIP2950     0.2052
 28213 OH2         25.0300     5.2740    35.3240 O.3    3101  TIP2951    -0.4105
 28214 H1          24.9500     5.9720    34.6730 H      3101  TIP2951     0.2052
 28215 H2          25.0380     5.7310    36.1650 H      3101  TIP2951     0.2052
 28216 OH2          0.3450   -23.8660   -43.2600 O.3    3102  TIP2952    -0.4105
 28217 H1           0.9680   -23.9080   -42.5340 H      3102  TIP2952     0.2052
 28218 H2           0.8910   -23.8870   -44.0460 H      3102  TIP2952     0.2052
 28219 OH2          8.8890   -30.7770    30.2810 O.3    3103  TIP2953    -0.4105
 28220 H1           8.3190   -30.2490    29.7220 H      3103  TIP2953     0.2052
 28221 H2           8.3020   -31.4160    30.6860 H      3103  TIP2953     0.2052
 28222 OH2        -20.9820    11.8790   -21.8880 O.3    3104  TIP2954    -0.4105
 28223 H1         -20.4100    12.3220   -21.2610 H      3104  TIP2954     0.2052
 28224 H2         -21.5380    11.3160   -21.3490 H      3104  TIP2954     0.2052
 28225 OH2         -0.5600    -1.6670    55.1480 O.3    3105  TIP2955    -0.4105
 28226 H1           0.2540    -1.1660    55.1780 H      3105  TIP2955     0.2052
 28227 H2          -0.7850    -1.8140    56.0670 H      3105  TIP2955     0.2052
 28228 OH2          2.7280    14.5570   -44.6840 O.3    3106  TIP2956    -0.4105
 28229 H1           2.1060    15.1720   -45.0710 H      3106  TIP2956     0.2052
 28230 H2           3.3670    15.1120   -44.2360 H      3106  TIP2956     0.2052
 28231 OH2         25.9180    19.1360    54.7920 O.3    3107  TIP2957    -0.4105
 28232 H1          24.9900    19.1050    55.0230 H      3107  TIP2957     0.2052
 28233 H2          26.3760    19.0770    55.6300 H      3107  TIP2957     0.2052
 28234 OH2         25.8650     7.6210    21.1110 O.3    3108  TIP2958    -0.4105
 28235 H1          26.1400     8.5330    21.0140 H      3108  TIP2958     0.2052
 28236 H2          25.0260     7.5740    20.6520 H      3108  TIP2958     0.2052
 28237 OH2         -1.7430    30.1720    49.7940 O.3    3109  TIP2959    -0.4105
 28238 H1          -1.9630    29.6810    49.0020 H      3109  TIP2959     0.2052
 28239 H2          -0.8300    29.9470    49.9700 H      3109  TIP2959     0.2052
 28240 OH2          5.7280    -9.1170    48.0940 O.3    3110  TIP2960    -0.4105
 28241 H1           5.6100    -8.8090    48.9930 H      3110  TIP2960     0.2052
 28242 H2           5.1560    -9.8810    48.0240 H      3110  TIP2960     0.2052
 28243 OH2         32.3510    18.0400    23.8460 O.3    3111  TIP2961    -0.4105
 28244 H1          32.5670    17.3010    23.2770 H      3111  TIP2961     0.2052
 28245 H2          31.4050    17.9760    23.9730 H      3111  TIP2961     0.2052
 28246 OH2         -8.4070    -1.5000   -21.5460 O.3    3112  TIP2962    -0.4105
 28247 H1          -8.9490    -0.7190   -21.4310 H      3112  TIP2962     0.2052
 28248 H2          -8.9790    -2.1260   -21.9910 H      3112  TIP2962     0.2052
 28249 OH2          9.8310     8.8460    21.2320 O.3    3113  TIP2963    -0.4105
 28250 H1          10.6100     9.3710    21.0470 H      3113  TIP2963     0.2052
 28251 H2          10.1720     7.9740    21.4320 H      3113  TIP2963     0.2052
 28252 OH2          8.5860     0.5780    21.6790 O.3    3114  TIP2964    -0.4105
 28253 H1           7.9830    -0.1660    21.6600 H      3114  TIP2964     0.2052
 28254 H2           8.2170     1.1700    22.3340 H      3114  TIP2964     0.2052
 28255 OH2         15.0590   -22.1930   -23.9630 O.3    3115  TIP2965    -0.4105
 28256 H1          15.6640   -22.6000   -24.5840 H      3115  TIP2965     0.2052
 28257 H2          14.1930   -22.3310   -24.3470 H      3115  TIP2965     0.2052
 28258 OH2         32.4220    -3.2280    41.4220 O.3    3116  TIP2966    -0.4105
 28259 H1          33.2750    -2.9470    41.7550 H      3116  TIP2966     0.2052
 28260 H2          31.9280    -2.4150    41.3120 H      3116  TIP2966     0.2052
 28261 OH2          2.0060    21.2850    36.0080 O.3    3117  TIP2967    -0.4105
 28262 H1           1.6490    22.0190    36.5090 H      3117  TIP2967     0.2052
 28263 H2           1.5330    21.3100    35.1760 H      3117  TIP2967     0.2052
 28264 OH2          6.4600   -15.2490   -43.5380 O.3    3118  TIP2968    -0.4105
 28265 H1           6.4790   -15.2380   -42.5810 H      3118  TIP2968     0.2052
 28266 H2           7.2140   -15.7840   -43.7860 H      3118  TIP2968     0.2052
 28267 OH2         32.0510    23.5480   -42.3090 O.3    3119  TIP2969    -0.4105
 28268 H1          31.6440    22.8850   -41.7510 H      3119  TIP2969     0.2052
 28269 H2          31.3730    23.7760   -42.9440 H      3119  TIP2969     0.2052
 28270 OH2        -14.1490     6.4060   -28.9580 O.3    3120  TIP2970    -0.4105
 28271 H1         -13.7440     5.5470   -28.8370 H      3120  TIP2970     0.2052
 28272 H2         -13.6440     6.9900   -28.3930 H      3120  TIP2970     0.2052
 28273 OH2        -15.8130    27.1930    39.7760 O.3    3121  TIP2971    -0.4105
 28274 H1         -16.3570    26.6020    40.2960 H      3121  TIP2971     0.2052
 28275 H2         -15.8450    28.0260    40.2470 H      3121  TIP2971     0.2052
 28276 OH2         24.9400    -0.9900    22.0040 O.3    3122  TIP2972    -0.4105
 28277 H1          24.9290    -0.5940    21.1330 H      3122  TIP2972     0.2052
 28278 H2          24.8270    -1.9270    21.8430 H      3122  TIP2972     0.2052
 28279 OH2         -7.0300   -11.2480    53.9380 O.3    3123  TIP2973    -0.4105
 28280 H1          -6.4190   -11.8500    53.5120 H      3123  TIP2973     0.2052
 28281 H2          -6.4700   -10.6230    54.3970 H      3123  TIP2973     0.2052
 28282 OH2         10.1140   -31.1450    52.9360 O.3    3124  TIP2974    -0.4105
 28283 H1           9.1590   -31.2080    52.9520 H      3124  TIP2974     0.2052
 28284 H2          10.3490   -30.8360    53.8100 H      3124  TIP2974     0.2052
 28285 OH2         11.4290     8.7030   -18.8280 O.3    3125  TIP2975    -0.4105
 28286 H1          11.0980     7.8060   -18.7880 H      3125  TIP2975     0.2052
 28287 H2          12.1040     8.6810   -19.5060 H      3125  TIP2975     0.2052
 28288 OH2         -6.1380    -7.0830    30.7110 O.3    3126  TIP2976    -0.4105
 28289 H1          -6.3970    -6.1810    30.5210 H      3126  TIP2976     0.2052
 28290 H2          -6.8910    -7.4570    31.1680 H      3126  TIP2976     0.2052
 28291 OH2         24.7380    11.4360    26.6940 O.3    3127  TIP2977    -0.4105
 28292 H1          25.1180    12.3150    26.7040 H      3127  TIP2977     0.2052
 28293 H2          24.5470    11.2480    27.6130 H      3127  TIP2977     0.2052
 28294 OH2          6.1910    27.8010    28.7060 O.3    3128  TIP2978    -0.4105
 28295 H1           5.8800    26.9060    28.5720 H      3128  TIP2978     0.2052
 28296 H2           7.0940    27.6990    29.0050 H      3128  TIP2978     0.2052
 28297 OH2         15.8820    -0.3690    40.5120 O.3    3129  TIP2979    -0.4105
 28298 H1          15.7100    -0.9330    39.7580 H      3129  TIP2979     0.2052
 28299 H2          16.3390     0.3880    40.1460 H      3129  TIP2979     0.2052
 28300 OH2         -9.0600   -15.9430   -51.1040 O.3    3130  TIP2980    -0.4105
 28301 H1          -9.4280   -15.5570   -51.8990 H      3130  TIP2980     0.2052
 28302 H2          -8.3110   -15.3870   -50.8920 H      3130  TIP2980     0.2052
 28303 OH2         15.9690   -14.5370   -32.2980 O.3    3131  TIP2981    -0.4105
 28304 H1          15.5170   -14.1060   -33.0230 H      3131  TIP2981     0.2052
 28305 H2          16.2820   -13.8170   -31.7490 H      3131  TIP2981     0.2052
 28306 OH2         -0.9790     3.9570   -44.0960 O.3    3132  TIP2982    -0.4105
 28307 H1          -0.0430     3.8780   -44.2840 H      3132  TIP2982     0.2052
 28308 H2          -1.3290     3.0800   -44.2490 H      3132  TIP2982     0.2052
 28309 OH2          1.8410    19.8170    22.2940 O.3    3133  TIP2983    -0.4105
 28310 H1           2.1010    18.9100    22.1340 H      3133  TIP2983     0.2052
 28311 H2           2.5870    20.2030    22.7520 H      3133  TIP2983     0.2052
 28312 OH2         30.9310    20.9550    34.1860 O.3    3134  TIP2984    -0.4105
 28313 H1          30.4640    21.5510    34.7710 H      3134  TIP2984     0.2052
 28314 H2          30.2550    20.6150    33.6000 H      3134  TIP2984     0.2052
 28315 OH2         18.6760   -12.2490    55.1890 O.3    3135  TIP2985    -0.4105
 28316 H1          19.3110   -12.6820    55.7600 H      3135  TIP2985     0.2052
 28317 H2          17.8610   -12.2510    55.6920 H      3135  TIP2985     0.2052
 28318 OH2          4.7450    28.7240   -55.4640 O.3    3136  TIP2986    -0.4105
 28319 H1           3.8890    28.6350   -55.8820 H      3136  TIP2986     0.2052
 28320 H2           5.0980    27.8340   -55.4480 H      3136  TIP2986     0.2052
 28321 OH2        -21.8300     2.1430    43.6030 O.3    3137  TIP2987    -0.4105
 28322 H1         -21.8300     1.6950    42.7570 H      3137  TIP2987     0.2052
 28323 H2         -21.0080     2.6350    43.6140 H      3137  TIP2987     0.2052
 28324 OH2        -31.4840     9.5790    54.1150 O.3    3138  TIP2988    -0.4105
 28325 H1         -30.9310     9.3820    53.3590 H      3138  TIP2988     0.2052
 28326 H2         -30.8740     9.8910    54.7840 H      3138  TIP2988     0.2052
 28327 OH2        -12.5460    -1.2650    30.1970 O.3    3139  TIP2989    -0.4105
 28328 H1         -13.1550    -1.7690    29.6560 H      3139  TIP2989     0.2052
 28329 H2         -13.1000    -0.8480    30.8570 H      3139  TIP2989     0.2052
 28330 OH2         -7.5340    22.8590   -26.9120 O.3    3140  TIP2990    -0.4105
 28331 H1          -6.8910    22.1520   -26.9640 H      3140  TIP2990     0.2052
 28332 H2          -8.2870    22.5350   -27.4070 H      3140  TIP2990     0.2052
 28333 OH2        -15.3220   -24.1250   -33.0550 O.3    3141  TIP2991    -0.4105
 28334 H1         -16.1930   -23.9000   -33.3830 H      3141  TIP2991     0.2052
 28335 H2         -15.0690   -24.8990   -33.5580 H      3141  TIP2991     0.2052
 28336 OH2        -21.7910    31.3560   -22.2830 O.3    3142  TIP2992    -0.4105
 28337 H1         -22.4800    31.5330   -21.6430 H      3142  TIP2992     0.2052
 28338 H2         -21.9100    30.4360   -22.5160 H      3142  TIP2992     0.2052
 28339 OH2        -13.2390   -11.7080    44.6490 O.3    3143  TIP2993    -0.4105
 28340 H1         -13.3780   -11.4490    45.5600 H      3143  TIP2993     0.2052
 28341 H2         -14.0950   -11.6020    44.2350 H      3143  TIP2993     0.2052
 28342 OH2        -25.9730   -12.2430    30.9340 O.3    3144  TIP2994    -0.4105
 28343 H1         -26.0800   -11.9030    31.8220 H      3144  TIP2994     0.2052
 28344 H2         -25.0300   -12.2040    30.7740 H      3144  TIP2994     0.2052
 28345 OH2         25.5020     1.7470    27.0150 O.3    3145  TIP2995    -0.4105
 28346 H1          25.6440     2.5260    26.4760 H      3145  TIP2995     0.2052
 28347 H2          24.6780     1.9180    27.4700 H      3145  TIP2995     0.2052
 28348 OH2         15.4040    21.3840   -46.9500 O.3    3146  TIP2996    -0.4105
 28349 H1          15.7840    21.0590   -47.7660 H      3146  TIP2996     0.2052
 28350 H2          15.0140    22.2260   -47.1860 H      3146  TIP2996     0.2052
 28351 OH2         -6.5320     2.2660    51.0790 O.3    3147  TIP2997    -0.4105
 28352 H1          -5.6310     2.5160    50.8740 H      3147  TIP2997     0.2052
 28353 H2          -7.0250     3.0860    51.0320 H      3147  TIP2997     0.2052
 28354 OH2         -2.3770    17.3100   -38.4960 O.3    3148  TIP2998    -0.4105
 28355 H1          -3.3190    17.1460   -38.5500 H      3148  TIP2998     0.2052
 28356 H2          -2.0330    17.0140   -39.3390 H      3148  TIP2998     0.2052
 28357 OH2        -11.3930    -9.3480   -31.6380 O.3    3149  TIP2999    -0.4105
 28358 H1         -10.9650    -9.4370   -32.4900 H      3149  TIP2999     0.2052
 28359 H2         -10.7960    -9.7760   -31.0240 H      3149  TIP2999     0.2052
 28360 OH2          3.5940    22.2970   -35.8290 O.3    3150  TIP3000    -0.4105
 28361 H1           4.3770    22.6000   -36.2890 H      3150  TIP3000     0.2052
 28362 H2           3.8380    22.3120   -34.9030 H      3150  TIP3000     0.2052
 28363 OH2          9.9600    22.1480   -16.8360 O.3    3151  TIP3001    -0.4105
 28364 H1          10.3700    21.3790   -17.2310 H      3151  TIP3001     0.2052
 28365 H2          10.6840    22.7580   -16.6910 H      3151  TIP3001     0.2052
 28366 OH2         18.8990    26.3050   -37.0140 O.3    3152  TIP3002    -0.4105
 28367 H1          18.7810    27.2490   -36.9110 H      3152  TIP3002     0.2052
 28368 H2          18.4050    26.0860   -37.8050 H      3152  TIP3002     0.2052
 28369 OH2          6.1820    17.5940   -31.5690 O.3    3153  TIP3003    -0.4105
 28370 H1           6.1890    17.1920   -32.4380 H      3153  TIP3003     0.2052
 28371 H2           5.2870    17.9160   -31.4610 H      3153  TIP3003     0.2052
 28372 OH2         16.2390     1.9890    39.0460 O.3    3154  TIP3004    -0.4105
 28373 H1          17.0230     2.3990    38.6810 H      3154  TIP3004     0.2052
 28374 H2          15.8470     2.6690    39.5940 H      3154  TIP3004     0.2052
 28375 OH2         32.0050   -28.9940    47.1290 O.3    3155  TIP3005    -0.4105
 28376 H1          32.2410   -29.9150    47.2370 H      3155  TIP3005     0.2052
 28377 H2          31.9470   -28.6550    48.0220 H      3155  TIP3005     0.2052
 28378 OH2        -29.2160   -13.2080   -37.7530 O.3    3156  TIP3006    -0.4105
 28379 H1         -30.1510   -13.1290   -37.5630 H      3156  TIP3006     0.2052
 28380 H2         -28.8760   -13.7650   -37.0540 H      3156  TIP3006     0.2052
 28381 OH2         32.0070    -3.6830   -15.2460 O.3    3157  TIP3007    -0.4105
 28382 H1          32.6660    -3.7390   -14.5530 H      3157  TIP3007     0.2052
 28383 H2          31.3300    -4.3070   -14.9850 H      3157  TIP3007     0.2052
 28384 OH2        -30.5530    -9.8550    32.0000 O.3    3158  TIP3008    -0.4105
 28385 H1         -30.2920    -9.4080    31.1940 H      3158  TIP3008     0.2052
 28386 H2         -31.5080    -9.8000    32.0060 H      3158  TIP3008     0.2052
 28387 OH2        -13.1600    24.3670   -48.4240 O.3    3159  TIP3009    -0.4105
 28388 H1         -12.4300    24.6650   -47.8820 H      3159  TIP3009     0.2052
 28389 H2         -12.8030    24.3360   -49.3120 H      3159  TIP3009     0.2052
 28390 OH2          5.1670     4.8150   -14.7620 O.3    3160  TIP3010    -0.4105
 28391 H1           5.3080     5.6500   -15.2090 H      3160  TIP3010     0.2052
 28392 H2           4.3230     4.9180   -14.3210 H      3160  TIP3010     0.2052
 28393 OH2        -10.7840    -0.8790   -45.5500 O.3    3161  TIP3011    -0.4105
 28394 H1         -10.9530    -0.4460   -46.3860 H      3161  TIP3011     0.2052
 28395 H2         -11.6500    -0.9900   -45.1580 H      3161  TIP3011     0.2052
 28396 OH2          8.3290   -11.9110   -51.6030 O.3    3162  TIP3012    -0.4105
 28397 H1           7.4980   -11.9870   -51.1340 H      3162  TIP3012     0.2052
 28398 H2           8.5810   -10.9940   -51.4980 H      3162  TIP3012     0.2052
 28399 OH2         19.4260    16.9180    41.1940 O.3    3163  TIP3013    -0.4105
 28400 H1          19.4950    16.3080    41.9280 H      3163  TIP3013     0.2052
 28401 H2          18.6250    16.6570    40.7390 H      3163  TIP3013     0.2052
 28402 OH2          7.6050    17.1840    31.9960 O.3    3164  TIP3014    -0.4105
 28403 H1           8.3600    17.2170    32.5840 H      3164  TIP3014     0.2052
 28404 H2           7.8930    16.6350    31.2670 H      3164  TIP3014     0.2052
 28405 OH2         21.5450    25.2110   -16.4460 O.3    3165  TIP3015    -0.4105
 28406 H1          21.1250    25.9350   -16.9100 H      3165  TIP3015     0.2052
 28407 H2          22.4800    25.4130   -16.4820 H      3165  TIP3015     0.2052
 28408 OH2        -19.5920   -29.2030   -18.2330 O.3    3166  TIP3016    -0.4105
 28409 H1         -20.1170   -28.4030   -18.2390 H      3166  TIP3016     0.2052
 28410 H2         -20.0750   -29.8040   -17.6670 H      3166  TIP3016     0.2052
 28411 OH2        -11.3860     3.0590   -39.9400 O.3    3167  TIP3017    -0.4105
 28412 H1         -12.0480     3.2010   -39.2630 H      3167  TIP3017     0.2052
 28413 H2         -10.5680     2.9490   -39.4550 H      3167  TIP3017     0.2052
 28414 OH2          9.4340   -24.4000    35.1680 O.3    3168  TIP3018    -0.4105
 28415 H1           9.4040   -25.3560    35.1980 H      3168  TIP3018     0.2052
 28416 H2          10.1950   -24.2000    34.6230 H      3168  TIP3018     0.2052
 28417 OH2          1.1170   -29.6310    55.3950 O.3    3169  TIP3019    -0.4105
 28418 H1           1.6060   -29.5910    56.2170 H      3169  TIP3019     0.2052
 28419 H2           1.7370   -29.9960    54.7640 H      3169  TIP3019     0.2052
 28420 OH2        -16.5260    -6.7580   -40.8510 O.3    3170  TIP3020    -0.4105
 28421 H1         -16.4540    -5.9200   -40.3940 H      3170  TIP3020     0.2052
 28422 H2         -15.6930    -6.8510   -41.3140 H      3170  TIP3020     0.2052
 28423 OH2         -4.8010   -26.5990    25.4280 O.3    3171  TIP3021    -0.4105
 28424 H1          -5.0880   -27.4410    25.7810 H      3171  TIP3021     0.2052
 28425 H2          -5.2200   -25.9470    25.9910 H      3171  TIP3021     0.2052
 28426 OH2         14.9220     7.1600   -47.4560 O.3    3172  TIP3022    -0.4105
 28427 H1          15.6790     6.7250   -47.0630 H      3172  TIP3022     0.2052
 28428 H2          14.2600     7.1590   -46.7660 H      3172  TIP3022     0.2052
 28429 OH2         -1.4000     0.8440   -27.7500 O.3    3173  TIP3023    -0.4105
 28430 H1          -0.9120     1.1850   -27.0000 H      3173  TIP3023     0.2052
 28431 H2          -0.8140     0.9690   -28.4960 H      3173  TIP3023     0.2052
 28432 OH2         19.3600    11.8710    31.4400 O.3    3174  TIP3024    -0.4105
 28433 H1          19.0390    10.9710    31.3910 H      3174  TIP3024     0.2052
 28434 H2          19.5410    12.1110    30.5310 H      3174  TIP3024     0.2052
 28435 OH2         20.5310    11.6280    35.3260 O.3    3175  TIP3025    -0.4105
 28436 H1          21.0940    12.3610    35.5760 H      3175  TIP3025     0.2052
 28437 H2          19.7690    12.0390    34.9190 H      3175  TIP3025     0.2052
 28438 OH2          4.1390    17.6060   -37.5030 O.3    3176  TIP3026    -0.4105
 28439 H1           4.3630    18.5370   -37.5270 H      3176  TIP3026     0.2052
 28440 H2           3.2400    17.5670   -37.8290 H      3176  TIP3026     0.2052
 28441 OH2        -18.5540    32.6200    40.7470 O.3    3177  TIP3027    -0.4105
 28442 H1         -17.6950    32.6810    41.1660 H      3177  TIP3027     0.2052
 28443 H2         -18.4080    32.0700    39.9780 H      3177  TIP3027     0.2052
 28444 OH2         28.4110    14.2060    18.7780 O.3    3178  TIP3028    -0.4105
 28445 H1          27.9260    13.5950    19.3320 H      3178  TIP3028     0.2052
 28446 H2          28.4160    13.7950    17.9140 H      3178  TIP3028     0.2052
 28447 OH2        -26.2960    -0.5990    49.9220 O.3    3179  TIP3029    -0.4105
 28448 H1         -26.0380    -0.1170    49.1360 H      3179  TIP3029     0.2052
 28449 H2         -27.0990    -1.0560    49.6700 H      3179  TIP3029     0.2052
 28450 OH2        -12.0780    -6.5360   -31.2320 O.3    3180  TIP3030    -0.4105
 28451 H1         -11.2980    -6.6360   -31.7770 H      3180  TIP3030     0.2052
 28452 H2         -11.8250    -6.8980   -30.3830 H      3180  TIP3030     0.2052
 28453 OH2        -25.4260   -28.6900    38.3980 O.3    3181  TIP3031    -0.4105
 28454 H1         -24.6500   -28.7380    38.9560 H      3181  TIP3031     0.2052
 28455 H2         -26.1450   -28.9810    38.9600 H      3181  TIP3031     0.2052
 28456 OH2        -11.0460   -32.1650    54.9380 O.3    3182  TIP3032    -0.4105
 28457 H1         -11.4250   -31.8620    55.7630 H      3182  TIP3032     0.2052
 28458 H2         -10.3680   -32.7880    55.1990 H      3182  TIP3032     0.2052
 28459 OH2        -17.7050    29.7370    36.8300 O.3    3183  TIP3033    -0.4105
 28460 H1         -16.9110    29.2080    36.9080 H      3183  TIP3033     0.2052
 28461 H2         -18.2620    29.2470    36.2260 H      3183  TIP3033     0.2052
 28462 OH2         16.5300   -28.9690    54.0530 O.3    3184  TIP3034    -0.4105
 28463 H1          16.7820   -28.5280    54.8650 H      3184  TIP3034     0.2052
 28464 H2          16.7860   -28.3600    53.3610 H      3184  TIP3034     0.2052
 28465 OH2        -28.6180    25.1170    49.4000 O.3    3185  TIP3035    -0.4105
 28466 H1         -27.9700    24.4600    49.6550 H      3185  TIP3035     0.2052
 28467 H2         -29.3150    25.0310    50.0500 H      3185  TIP3035     0.2052
 28468 OH2         -8.6000    -7.9230    37.2600 O.3    3186  TIP3036    -0.4105
 28469 H1          -8.4510    -7.1330    37.7790 H      3186  TIP3036     0.2052
 28470 H2          -9.3360    -8.3580    37.6900 H      3186  TIP3036     0.2052
 28471 OH2        -23.1360   -12.3890   -27.9630 O.3    3187  TIP3037    -0.4105
 28472 H1         -23.4100   -12.7650   -27.1260 H      3187  TIP3037     0.2052
 28473 H2         -23.2130   -13.1110   -28.5860 H      3187  TIP3037     0.2052
 28474 OH2        -32.9400   -32.6060    20.9880 O.3    3188  TIP3038    -0.4105
 28475 H1         -32.0250   -32.7120    21.2460 H      3188  TIP3038     0.2052
 28476 H2         -32.9050   -32.0790    20.1890 H      3188  TIP3038     0.2052
 28477 OH2         -5.8970     5.8790   -23.8050 O.3    3189  TIP3039    -0.4105
 28478 H1          -5.6810     6.6710   -24.2970 H      3189  TIP3039     0.2052
 28479 H2          -5.7170     5.1630   -24.4130 H      3189  TIP3039     0.2052
 28480 OH2        -22.3280   -31.4170   -39.0640 O.3    3190  TIP3040    -0.4105
 28481 H1         -21.8720   -31.2380   -39.8860 H      3190  TIP3040     0.2052
 28482 H2         -21.9750   -32.2580   -38.7720 H      3190  TIP3040     0.2052
 28483 OH2          5.7020    24.6890    21.7960 O.3    3191  TIP3041    -0.4105
 28484 H1           5.9370    25.5120    21.3680 H      3191  TIP3041     0.2052
 28485 H2           4.7500    24.6360    21.7070 H      3191  TIP3041     0.2052
 28486 OH2         12.0930   -32.2460    37.2030 O.3    3192  TIP3042    -0.4105
 28487 H1          12.0470   -32.9850    37.8090 H      3192  TIP3042     0.2052
 28488 H2          11.1990   -32.1490    36.8750 H      3192  TIP3042     0.2052
 28489 OH2         15.6440     2.5250    42.5130 O.3    3193  TIP3043    -0.4105
 28490 H1          15.4220     1.9310    43.2300 H      3193  TIP3043     0.2052
 28491 H2          14.8430     2.5830    41.9930 H      3193  TIP3043     0.2052
 28492 OH2        -14.7180     0.0390    24.7540 O.3    3194  TIP3044    -0.4105
 28493 H1         -13.8410    -0.2060    25.0530 H      3194  TIP3044     0.2052
 28494 H2         -14.7870    -0.3400    23.8780 H      3194  TIP3044     0.2052
 28495 OH2          2.5940   -24.2480    53.6300 O.3    3195  TIP3045    -0.4105
 28496 H1           2.8490   -25.1610    53.4980 H      3195  TIP3045     0.2052
 28497 H2           2.3110   -24.2080    54.5440 H      3195  TIP3045     0.2052
 28498 OH2        -28.6650    25.9400    15.5150 O.3    3196  TIP3046    -0.4105
 28499 H1         -29.1210    25.4250    14.8500 H      3196  TIP3046     0.2052
 28500 H2         -27.8570    26.2240    15.0870 H      3196  TIP3046     0.2052
 28501 OH2          2.7990   -13.4360    49.4360 O.3    3197  TIP3047    -0.4105
 28502 H1           2.9510   -14.3170    49.0940 H      3197  TIP3047     0.2052
 28503 H2           1.8470   -13.3630    49.4980 H      3197  TIP3047     0.2052
 28504 OH2        -29.9740   -25.3550   -30.0760 O.3    3198  TIP3048    -0.4105
 28505 H1         -30.7360   -25.3690   -30.6550 H      3198  TIP3048     0.2052
 28506 H2         -30.2280   -25.9020   -29.3320 H      3198  TIP3048     0.2052
 28507 OH2         20.6090   -16.3340    33.0430 O.3    3199  TIP3049    -0.4105
 28508 H1          20.4360   -15.9790    33.9150 H      3199  TIP3049     0.2052
 28509 H2          21.1490   -15.6690    32.6160 H      3199  TIP3049     0.2052
 28510 OH2         -4.3150   -28.5490   -46.5300 O.3    3200  TIP3050    -0.4105
 28511 H1          -5.1550   -28.4960   -46.9870 H      3200  TIP3050     0.2052
 28512 H2          -4.5410   -28.8360   -45.6460 H      3200  TIP3050     0.2052
 28513 OH2        -11.7340   -13.8790   -50.6320 O.3    3201  TIP3051    -0.4105
 28514 H1         -11.3650   -14.2300   -51.4420 H      3201  TIP3051     0.2052
 28515 H2         -12.5660   -14.3420   -50.5270 H      3201  TIP3051     0.2052
 28516 OH2         27.7290    16.5140    45.2430 O.3    3202  TIP3052    -0.4105
 28517 H1          28.5610    16.8950    45.5240 H      3202  TIP3052     0.2052
 28518 H2          27.0670    17.1370    45.5420 H      3202  TIP3052     0.2052
 28519 OH2        -32.5040    -0.5580    17.9100 O.3    3203  TIP3053    -0.4105
 28520 H1         -31.8310    -0.2850    18.5330 H      3203  TIP3053     0.2052
 28521 H2         -32.2090    -1.4130    17.5970 H      3203  TIP3053     0.2052
 28522 OH2         31.4730   -27.8350   -36.1980 O.3    3204  TIP3054    -0.4105
 28523 H1          31.7580   -28.3860   -36.9270 H      3204  TIP3054     0.2052
 28524 H2          31.3470   -28.4450   -35.4710 H      3204  TIP3054     0.2052
 28525 OH2         28.2920     6.2290    55.2390 O.3    3205  TIP3055    -0.4105
 28526 H1          28.1040     5.3080    55.4170 H      3205  TIP3055     0.2052
 28527 H2          29.1940     6.2330    54.9180 H      3205  TIP3055     0.2052
 28528 OH2         -4.0560   -29.8420    47.1870 O.3    3206  TIP3056    -0.4105
 28529 H1          -4.3580   -30.0630    46.3060 H      3206  TIP3056     0.2052
 28530 H2          -3.1060   -29.9540    47.1500 H      3206  TIP3056     0.2052
 28531 OH2          5.0050    24.9630    43.2330 O.3    3207  TIP3057    -0.4105
 28532 H1           5.1130    25.0600    44.1790 H      3207  TIP3057     0.2052
 28533 H2           5.8730    24.7100    42.9170 H      3207  TIP3057     0.2052
 28534 OH2         25.7830   -19.7580    52.7910 O.3    3208  TIP3058    -0.4105
 28535 H1          26.3830   -20.4910    52.6520 H      3208  TIP3058     0.2052
 28536 H2          26.3490   -18.9860    52.8190 H      3208  TIP3058     0.2052
 28537 OH2         23.8960    26.5340   -16.2080 O.3    3209  TIP3059    -0.4105
 28538 H1          23.8270    27.4780   -16.0650 H      3209  TIP3059     0.2052
 28539 H2          24.7640    26.4110   -16.5900 H      3209  TIP3059     0.2052
 28540 OH2         19.4730   -27.0980    41.0580 O.3    3210  TIP3060    -0.4105
 28541 H1          19.9590   -27.5570    40.3730 H      3210  TIP3060     0.2052
 28542 H2          19.9110   -26.2500    41.1360 H      3210  TIP3060     0.2052
 28543 OH2         23.4960   -24.9420   -52.0410 O.3    3211  TIP3061    -0.4105
 28544 H1          24.3100   -25.4460   -52.0450 H      3211  TIP3061     0.2052
 28545 H2          23.6660   -24.2090   -52.6330 H      3211  TIP3061     0.2052
 28546 OH2         25.9770     1.0710    37.5050 O.3    3212  TIP3062    -0.4105
 28547 H1          26.3170     1.9220    37.2290 H      3212  TIP3062     0.2052
 28548 H2          26.2230     1.0020    38.4280 H      3212  TIP3062     0.2052
 28549 OH2         19.8920   -18.1700    46.0140 O.3    3213  TIP3063    -0.4105
 28550 H1          18.9470   -18.0570    46.1160 H      3213  TIP3063     0.2052
 28551 H2          20.2680   -17.3600    46.3590 H      3213  TIP3063     0.2052
 28552 OH2        -11.4480   -20.1840   -31.1420 O.3    3214  TIP3064    -0.4105
 28553 H1         -12.1560   -19.5500   -31.0250 H      3214  TIP3064     0.2052
 28554 H2         -11.8400   -20.8880   -31.6590 H      3214  TIP3064     0.2052
 28555 OH2         24.5470    -5.9140   -47.3640 O.3    3215  TIP3065    -0.4105
 28556 H1          24.0570    -6.7350   -47.4090 H      3215  TIP3065     0.2052
 28557 H2          24.9800    -5.8460   -48.2150 H      3215  TIP3065     0.2052
 28558 OH2        -13.3770     0.6570   -26.4830 O.3    3216  TIP3066    -0.4105
 28559 H1         -13.2300    -0.2360   -26.1720 H      3216  TIP3066     0.2052
 28560 H2         -12.9630     0.6810   -27.3460 H      3216  TIP3066     0.2052
 28561 OH2         27.6810     5.2900   -36.9790 O.3    3217  TIP3067    -0.4105
 28562 H1          27.8070     5.8470   -37.7480 H      3217  TIP3067     0.2052
 28563 H2          26.9780     4.6910   -37.2300 H      3217  TIP3067     0.2052
 28564 OH2          3.4120    32.6070    47.7110 O.3    3218  TIP3068    -0.4105
 28565 H1           2.9480    33.3250    47.2810 H      3218  TIP3068     0.2052
 28566 H2           4.0520    33.0380    48.2770 H      3218  TIP3068     0.2052
 28567 OH2        -13.0490   -31.8120   -45.5370 O.3    3219  TIP3069    -0.4105
 28568 H1         -13.4910   -32.5910   -45.8760 H      3219  TIP3069     0.2052
 28569 H2         -12.4890   -32.1410   -44.8340 H      3219  TIP3069     0.2052
 28570 OH2        -30.8450   -32.2130   -28.1420 O.3    3220  TIP3070    -0.4105
 28571 H1         -30.9310   -32.6190   -29.0040 H      3220  TIP3070     0.2052
 28572 H2         -29.9080   -32.0360   -28.0520 H      3220  TIP3070     0.2052
 28573 OH2        -31.5480     7.9660    30.3340 O.3    3221  TIP3071    -0.4105
 28574 H1         -30.7110     8.2130    29.9410 H      3221  TIP3071     0.2052
 28575 H2         -31.3090     7.4340    31.0930 H      3221  TIP3071     0.2052
 28576 OH2        -32.8470    32.1630   -48.6850 O.3    3222  TIP3072    -0.4105
 28577 H1         -33.2350    32.8680   -49.2030 H      3222  TIP3072     0.2052
 28578 H2         -32.1520    31.8120   -49.2410 H      3222  TIP3072     0.2052
 28579 OH2         32.0140    20.4960   -53.6070 O.3    3223  TIP3073    -0.4105
 28580 H1          32.7680    19.9330   -53.4310 H      3223  TIP3073     0.2052
 28581 H2          32.1510    20.8090   -54.5010 H      3223  TIP3073     0.2052
 28582 OH2          5.9530   -31.9110   -46.3660 O.3    3224  TIP3074    -0.4105
 28583 H1           6.4790   -31.8360   -47.1620 H      3224  TIP3074     0.2052
 28584 H2           5.3960   -32.6750   -46.5170 H      3224  TIP3074     0.2052
 28585 OH2         32.4810    16.4320    38.1110 O.3    3225  TIP3075    -0.4105
 28586 H1          32.7000    16.0510    38.9620 H      3225  TIP3075     0.2052
 28587 H2          33.2610    16.9270    37.8620 H      3225  TIP3075     0.2052
 28588 OH2         28.4800    23.3770    30.0670 O.3    3226  TIP3076    -0.4105
 28589 H1          27.8640    22.7100    29.7620 H      3226  TIP3076     0.2052
 28590 H2          28.2320    23.5330    30.9780 H      3226  TIP3076     0.2052
 28591 OH2         23.5960    -3.4030   -51.9170 O.3    3227  TIP3077    -0.4105
 28592 H1          23.4540    -4.2610   -51.5160 H      3227  TIP3077     0.2052
 28593 H2          23.0730    -2.8010   -51.3870 H      3227  TIP3077     0.2052
 28594 OH2         15.1070    14.8090   -17.2370 O.3    3228  TIP3078    -0.4105
 28595 H1          14.2930    14.7780   -16.7350 H      3228  TIP3078     0.2052
 28596 H2          14.9310    15.4330   -17.9420 H      3228  TIP3078     0.2052
 28597 OH2         11.0960   -18.8130    42.4520 O.3    3229  TIP3079    -0.4105
 28598 H1          11.8480   -18.9620    41.8780 H      3229  TIP3079     0.2052
 28599 H2          11.3670   -19.1670    43.2990 H      3229  TIP3079     0.2052
 28600 OH2        -29.2070    30.1400    49.6910 O.3    3230  TIP3080    -0.4105
 28601 H1         -29.6070    30.1110    48.8220 H      3230  TIP3080     0.2052
 28602 H2         -29.4490    29.3070    50.0940 H      3230  TIP3080     0.2052
 28603 OH2          6.7150   -23.8520   -52.8940 O.3    3231  TIP3081    -0.4105
 28604 H1           6.5230   -24.0800   -53.8040 H      3231  TIP3081     0.2052
 28605 H2           6.1330   -24.4120   -52.3790 H      3231  TIP3081     0.2052
 28606 OH2          4.1510    28.2390   -49.5500 O.3    3232  TIP3082    -0.4105
 28607 H1           4.3010    28.4610   -50.4690 H      3232  TIP3082     0.2052
 28608 H2           3.8450    29.0530   -49.1520 H      3232  TIP3082     0.2052
 28609 OH2        -32.8330     7.7260    23.9320 O.3    3233  TIP3083    -0.4105
 28610 H1         -33.6530     7.2530    24.0760 H      3233  TIP3083     0.2052
 28611 H2         -32.1580     7.0480    23.9490 H      3233  TIP3083     0.2052
 28612 OH2        -22.5430   -32.2100    41.6120 O.3    3234  TIP3084    -0.4105
 28613 H1         -21.7000   -32.2600    42.0630 H      3234  TIP3084     0.2052
 28614 H2         -22.3160   -32.1070    40.6880 H      3234  TIP3084     0.2052
 28615 OH2        -16.2830   -18.6770   -28.7510 O.3    3235  TIP3085    -0.4105
 28616 H1         -16.6590   -18.1150   -28.0730 H      3235  TIP3085     0.2052
 28617 H2         -16.1800   -18.1020   -29.5090 H      3235  TIP3085     0.2052
 28618 OH2         26.0020    -6.6020   -42.6370 O.3    3236  TIP3086    -0.4105
 28619 H1          26.2490    -6.1960   -43.4680 H      3236  TIP3086     0.2052
 28620 H2          26.1120    -7.5410   -42.7860 H      3236  TIP3086     0.2052
 28621 OH2          9.3720    29.8930    14.7150 O.3    3237  TIP3087    -0.4105
 28622 H1           9.9100    30.6400    14.4530 H      3237  TIP3087     0.2052
 28623 H2           9.7310    29.1540    14.2230 H      3237  TIP3087     0.2052
 28624 OH2        -20.4380     7.1640    54.2830 O.3    3238  TIP3088    -0.4105
 28625 H1         -20.8110     6.6670    55.0100 H      3238  TIP3088     0.2052
 28626 H2         -19.7840     6.5780    53.9010 H      3238  TIP3088     0.2052
 28627 OH2         -7.2710    -8.3400    44.2280 O.3    3239  TIP3089    -0.4105
 28628 H1          -6.4400    -8.7250    43.9470 H      3239  TIP3089     0.2052
 28629 H2          -7.2360    -8.3670    45.1840 H      3239  TIP3089     0.2052
 28630 OH2         -8.0890   -20.1030    49.7650 O.3    3240  TIP3090    -0.4105
 28631 H1          -8.2830   -19.1780    49.9200 H      3240  TIP3090     0.2052
 28632 H2          -8.7740   -20.3940    49.1640 H      3240  TIP3090     0.2052
 28633 OH2          2.2140    29.3490    40.0740 O.3    3241  TIP3091    -0.4105
 28634 H1           1.7910    29.2280    39.2240 H      3241  TIP3091     0.2052
 28635 H2           3.1450    29.2150    39.9000 H      3241  TIP3091     0.2052
 28636 OH2         13.9360    25.6580   -50.4430 O.3    3242  TIP3092    -0.4105
 28637 H1          13.3100    25.0080   -50.7610 H      3242  TIP3092     0.2052
 28638 H2          14.6950    25.1440   -50.1660 H      3242  TIP3092     0.2052
 28639 OH2        -25.7030     1.4080   -21.2360 O.3    3243  TIP3093    -0.4105
 28640 H1         -25.9060     2.0390   -20.5460 H      3243  TIP3093     0.2052
 28641 H2         -26.5490     1.0220   -21.4640 H      3243  TIP3093     0.2052
 28642 OH2        -21.1750     2.8670   -32.1790 O.3    3244  TIP3094    -0.4105
 28643 H1         -20.4240     3.2350   -32.6440 H      3244  TIP3094     0.2052
 28644 H2         -21.7560     2.5530   -32.8730 H      3244  TIP3094     0.2052
 28645 OH2         -1.1540    19.0280   -23.3270 O.3    3245  TIP3095    -0.4105
 28646 H1          -2.0070    18.7430   -22.9970 H      3245  TIP3095     0.2052
 28647 H2          -0.5370    18.7830   -22.6370 H      3245  TIP3095     0.2052
 28648 OH2        -14.2480   -20.7620    35.3150 O.3    3246  TIP3096    -0.4105
 28649 H1         -14.0310   -20.1150    35.9870 H      3246  TIP3096     0.2052
 28650 H2         -15.1970   -20.8650    35.3780 H      3246  TIP3096     0.2052
 28651 OH2         -5.7040   -10.7570   -20.7920 O.3    3247  TIP3097    -0.4105
 28652 H1          -6.0590    -9.8860   -20.9750 H      3247  TIP3097     0.2052
 28653 H2          -6.4750   -11.3120   -20.6810 H      3247  TIP3097     0.2052
 28654 OH2        -31.7830   -29.6910   -47.0160 O.3    3248  TIP3098    -0.4105
 28655 H1         -32.7180   -29.5010   -47.0950 H      3248  TIP3098     0.2052
 28656 H2         -31.3530   -28.8500   -47.1670 H      3248  TIP3098     0.2052
 28657 OH2         30.8120    22.8040    39.0190 O.3    3249  TIP3099    -0.4105
 28658 H1          31.0490    23.6650    39.3630 H      3249  TIP3099     0.2052
 28659 H2          30.5460    22.3020    39.7890 H      3249  TIP3099     0.2052
 28660 OH2        -16.1200   -24.8530    47.7020 O.3    3250  TIP3100    -0.4105
 28661 H1         -16.8450   -25.0240    47.1010 H      3250  TIP3100     0.2052
 28662 H2         -15.4190   -25.4320    47.4030 H      3250  TIP3100     0.2052
 28663 OH2         -8.0320    -6.6870    24.1370 O.3    3251  TIP3101    -0.4105
 28664 H1          -8.0850    -6.5150    23.1970 H      3251  TIP3101     0.2052
 28665 H2          -7.1030    -6.5900    24.3460 H      3251  TIP3101     0.2052
 28666 OH2        -20.4410    20.2390   -47.4720 O.3    3252  TIP3102    -0.4105
 28667 H1         -20.9880    19.6310   -46.9750 H      3252  TIP3102     0.2052
 28668 H2         -19.7350    19.6950   -47.8230 H      3252  TIP3102     0.2052
 28669 OH2         29.9760   -12.8830   -46.7110 O.3    3253  TIP3103    -0.4105
 28670 H1          29.8020   -12.0980   -47.2310 H      3253  TIP3103     0.2052
 28671 H2          29.9150   -13.6040   -47.3370 H      3253  TIP3103     0.2052
 28672 OH2        -30.1820   -12.9380    41.4890 O.3    3254  TIP3104    -0.4105
 28673 H1         -29.7160   -13.4880    42.1180 H      3254  TIP3104     0.2052
 28674 H2         -31.1070   -13.0580    41.7030 H      3254  TIP3104     0.2052
 28675 OH2         29.1750    26.1040   -47.1170 O.3    3255  TIP3105    -0.4105
 28676 H1          29.3430    25.8710   -48.0300 H      3255  TIP3105     0.2052
 28677 H2          29.9290    26.6350   -46.8630 H      3255  TIP3105     0.2052
 28678 OH2        -29.5840    -4.3520    36.1310 O.3    3256  TIP3106    -0.4105
 28679 H1         -30.3840    -3.9520    35.7910 H      3256  TIP3106     0.2052
 28680 H2         -29.7190    -5.2930    36.0190 H      3256  TIP3106     0.2052
 28681 OH2         -2.2200    -2.1260   -42.9400 O.3    3257  TIP3107    -0.4105
 28682 H1          -2.6570    -2.9730   -42.8550 H      3257  TIP3107     0.2052
 28683 H2          -2.1780    -1.9710   -43.8840 H      3257  TIP3107     0.2052
 28684 OH2         25.8170   -13.4380   -11.1280 O.3    3258  TIP3108    -0.4105
 28685 H1          25.4540   -13.8700   -10.3540 H      3258  TIP3108     0.2052
 28686 H2          26.5000   -12.8620   -10.7830 H      3258  TIP3108     0.2052
 28687 OH2         22.4050     6.5350    25.3190 O.3    3259  TIP3109    -0.4105
 28688 H1          23.3590     6.6060    25.3140 H      3259  TIP3109     0.2052
 28689 H2          22.1240     7.0220    24.5440 H      3259  TIP3109     0.2052
 28690 OH2        -26.5570    18.4410    48.9330 O.3    3260  TIP3110    -0.4105
 28691 H1         -26.3450    17.7600    48.2940 H      3260  TIP3110     0.2052
 28692 H2         -26.3360    19.2610    48.4920 H      3260  TIP3110     0.2052
 28693 OH2        -13.6330   -10.3160   -30.3320 O.3    3261  TIP3111    -0.4105
 28694 H1         -13.1520    -9.7530   -30.9390 H      3261  TIP3111     0.2052
 28695 H2         -14.4640   -10.4910   -30.7740 H      3261  TIP3111     0.2052
 28696 OH2         25.2450   -16.4130   -28.7390 O.3    3262  TIP3112    -0.4105
 28697 H1          24.9650   -16.8460   -29.5450 H      3262  TIP3112     0.2052
 28698 H2          24.7870   -16.8830   -28.0420 H      3262  TIP3112     0.2052
 28699 OH2          8.8760    28.1800    28.8140 O.3    3263  TIP3113    -0.4105
 28700 H1           9.0620    29.0830    29.0730 H      3263  TIP3113     0.2052
 28701 H2           9.6450    27.6860    29.0960 H      3263  TIP3113     0.2052
 28702 OH2         28.2280    14.6520   -41.7030 O.3    3264  TIP3114    -0.4105
 28703 H1          29.0370    15.1630   -41.7110 H      3264  TIP3114     0.2052
 28704 H2          28.3030    14.0960   -40.9270 H      3264  TIP3114     0.2052
 28705 OH2         18.2830     1.9240   -41.4360 O.3    3265  TIP3115    -0.4105
 28706 H1          18.2400     2.1330   -42.3690 H      3265  TIP3115     0.2052
 28707 H2          19.1160     2.2950   -41.1450 H      3265  TIP3115     0.2052
 28708 OH2         10.5500    11.7490   -23.2980 O.3    3266  TIP3116    -0.4105
 28709 H1          10.3630    10.8470   -23.0380 H      3266  TIP3116     0.2052
 28710 H2          10.4320    11.7540   -24.2480 H      3266  TIP3116     0.2052
 28711 OH2        -15.2880    -6.2930   -34.2680 O.3    3267  TIP3117    -0.4105
 28712 H1         -16.2000    -6.0030   -34.2840 H      3267  TIP3117     0.2052
 28713 H2         -15.2070    -6.8710   -35.0260 H      3267  TIP3117     0.2052
 28714 OH2         -0.7130    31.1450   -25.9570 O.3    3268  TIP3118    -0.4105
 28715 H1          -0.1870    31.5350   -25.2600 H      3268  TIP3118     0.2052
 28716 H2          -0.2130    30.3780   -26.2360 H      3268  TIP3118     0.2052
 28717 OH2        -15.5730   -13.8320   -33.2280 O.3    3269  TIP3119    -0.4105
 28718 H1         -16.2760   -13.8060   -32.5780 H      3269  TIP3119     0.2052
 28719 H2         -15.7750   -14.5960   -33.7680 H      3269  TIP3119     0.2052
 28720 OH2        -28.4490    11.4750    34.5130 O.3    3270  TIP3120    -0.4105
 28721 H1         -28.8340    11.3520    35.3810 H      3270  TIP3120     0.2052
 28722 H2         -29.2010    11.5880    33.9310 H      3270  TIP3120     0.2052
 28723 OH2          4.8260    23.6330    39.7990 O.3    3271  TIP3121    -0.4105
 28724 H1           5.4450    23.7370    39.0770 H      3271  TIP3121     0.2052
 28725 H2           5.2320    22.9800    40.3710 H      3271  TIP3121     0.2052
 28726 OH2         -2.2220     9.1320   -21.0260 O.3    3272  TIP3122    -0.4105
 28727 H1          -2.1060    10.0110   -21.3870 H      3272  TIP3122     0.2052
 28728 H2          -2.1570     8.5510   -21.7840 H      3272  TIP3122     0.2052
 28729 OH2         28.3300     5.1970   -51.2300 O.3    3273  TIP3123    -0.4105
 28730 H1          27.7380     5.1440   -51.9810 H      3273  TIP3123     0.2052
 28731 H2          27.8440     5.7010   -50.5770 H      3273  TIP3123     0.2052
 28732 OH2        -20.0320   -32.7300   -22.6910 O.3    3274  TIP3124    -0.4105
 28733 H1         -20.3670   -33.5000   -22.2310 H      3274  TIP3124     0.2052
 28734 H2         -20.7860   -32.3920   -23.1740 H      3274  TIP3124     0.2052
 28735 OH2        -10.6900    14.6680   -14.3170 O.3    3275  TIP3125    -0.4105
 28736 H1         -10.1300    14.3460   -15.0240 H      3275  TIP3125     0.2052
 28737 H2         -10.6740    15.6200   -14.4130 H      3275  TIP3125     0.2052
 28738 OH2          4.4810   -14.9340    40.5180 O.3    3276  TIP3126    -0.4105
 28739 H1           4.8340   -14.0770    40.2810 H      3276  TIP3126     0.2052
 28740 H2           5.0850   -15.5610    40.1200 H      3276  TIP3126     0.2052
 28741 OH2          5.2920    24.5000   -32.1890 O.3    3277  TIP3127    -0.4105
 28742 H1           4.7550    25.2270   -32.5030 H      3277  TIP3127     0.2052
 28743 H2           6.1560    24.8850   -32.0420 H      3277  TIP3127     0.2052
 28744 OH2         -5.7280    21.0020    42.8700 O.3    3278  TIP3128    -0.4105
 28745 H1          -4.8080    21.2650    42.9020 H      3278  TIP3128     0.2052
 28746 H2          -5.9840    20.9120    43.7870 H      3278  TIP3128     0.2052
 28747 OH2        -20.4770    16.2680   -32.0940 O.3    3279  TIP3129    -0.4105
 28748 H1         -19.5710    16.0570   -31.8670 H      3279  TIP3129     0.2052
 28749 H2         -20.9610    15.4600   -31.9220 H      3279  TIP3129     0.2052
 28750 OH2         28.1430   -16.5160   -38.1820 O.3    3280  TIP3130    -0.4105
 28751 H1          28.9320   -16.0320   -37.9370 H      3280  TIP3130     0.2052
 28752 H2          28.3290   -16.8480   -39.0600 H      3280  TIP3130     0.2052
 28753 OH2         10.7890     5.2350    50.9230 O.3    3281  TIP3131    -0.4105
 28754 H1          10.2200     5.9130    51.2870 H      3281  TIP3131     0.2052
 28755 H2          10.9610     5.5220    50.0260 H      3281  TIP3131     0.2052
 28756 OH2         17.6910   -31.9480   -40.4290 O.3    3282  TIP3132    -0.4105
 28757 H1          16.9580   -32.5410   -40.5960 H      3282  TIP3132     0.2052
 28758 H2          18.4670   -32.4500   -40.6780 H      3282  TIP3132     0.2052
 28759 OH2        -18.4030   -24.8380    55.1710 O.3    3283  TIP3133    -0.4105
 28760 H1         -18.0340   -25.7200    55.1390 H      3283  TIP3133     0.2052
 28761 H2         -17.7130   -24.3040    55.5660 H      3283  TIP3133     0.2052
 28762 OH2         11.9250   -11.9630   -27.2200 O.3    3284  TIP3134    -0.4105
 28763 H1          12.1620   -11.7780   -26.3120 H      3284  TIP3134     0.2052
 28764 H2          10.9910   -12.1680   -27.1880 H      3284  TIP3134     0.2052
 28765 OH2         -1.6300   -29.8210   -46.5400 O.3    3285  TIP3135    -0.4105
 28766 H1          -2.4050   -29.5830   -46.0320 H      3285  TIP3135     0.2052
 28767 H2          -1.9780   -30.2320   -47.3320 H      3285  TIP3135     0.2052
 28768 OH2         19.4710    21.4160    49.4560 O.3    3286  TIP3136    -0.4105
 28769 H1          18.6270    21.8360    49.6190 H      3286  TIP3136     0.2052
 28770 H2          20.0340    22.1230    49.1400 H      3286  TIP3136     0.2052
 28771 OH2          8.4520   -21.5720    43.3700 O.3    3287  TIP3137    -0.4105
 28772 H1           8.6460   -22.4510    43.6960 H      3287  TIP3137     0.2052
 28773 H2           9.2660   -21.0840    43.4950 H      3287  TIP3137     0.2052
 28774 OH2        -14.4780    -6.5300    52.5470 O.3    3288  TIP3138    -0.4105
 28775 H1         -14.2830    -7.0650    51.7780 H      3288  TIP3138     0.2052
 28776 H2         -14.0190    -6.9660    53.2650 H      3288  TIP3138     0.2052
 28777 OH2        -13.4600    17.7950   -44.5260 O.3    3289  TIP3139    -0.4105
 28778 H1         -13.8270    18.4890   -43.9780 H      3289  TIP3139     0.2052
 28779 H2         -13.7720    16.9840   -44.1260 H      3289  TIP3139     0.2052
 28780 OH2          3.0990    -9.4770    34.3460 O.3    3290  TIP3140    -0.4105
 28781 H1           2.7210    -8.6250    34.1270 H      3290  TIP3140     0.2052
 28782 H2           2.8010    -9.6500    35.2390 H      3290  TIP3140     0.2052
 28783 OH2         13.9750     2.8050    33.4270 O.3    3291  TIP3141    -0.4105
 28784 H1          14.5460     2.3100    34.0140 H      3291  TIP3141     0.2052
 28785 H2          13.1030     2.4430    33.5780 H      3291  TIP3141     0.2052
 28786 OH2         23.1550     7.8870    52.6420 O.3    3292  TIP3142    -0.4105
 28787 H1          23.6920     8.4590    53.1890 H      3292  TIP3142     0.2052
 28788 H2          23.2980     7.0100    52.9990 H      3292  TIP3142     0.2052
 28789 OH2         16.4910     5.0300    43.7600 O.3    3293  TIP3143    -0.4105
 28790 H1          15.9420     5.2470    44.5140 H      3293  TIP3143     0.2052
 28791 H2          16.6220     4.0840    43.8230 H      3293  TIP3143     0.2052
 28792 OH2        -12.1570    -8.3510   -45.4980 O.3    3294  TIP3144    -0.4105
 28793 H1         -12.3850    -9.2630   -45.3150 H      3294  TIP3144     0.2052
 28794 H2         -12.6280    -8.1440   -46.3050 H      3294  TIP3144     0.2052
 28795 OH2         12.2040   -14.0300   -31.9110 O.3    3295  TIP3145    -0.4105
 28796 H1          12.6400   -14.5190   -32.6090 H      3295  TIP3145     0.2052
 28797 H2          11.3630   -13.7730   -32.2870 H      3295  TIP3145     0.2052
 28798 OH2        -32.0620    11.6580    27.0990 O.3    3296  TIP3146    -0.4105
 28799 H1         -32.7780    12.2450    26.8560 H      3296  TIP3146     0.2052
 28800 H2         -32.1870    11.5000    28.0350 H      3296  TIP3146     0.2052
 28801 OH2        -21.9190   -18.3010    22.2490 O.3    3297  TIP3147    -0.4105
 28802 H1         -22.1160   -17.4100    22.5380 H      3297  TIP3147     0.2052
 28803 H2         -22.7460   -18.6270    21.8930 H      3297  TIP3147     0.2052
 28804 OH2        -14.4160   -24.9800    49.8870 O.3    3298  TIP3148    -0.4105
 28805 H1         -14.6550   -25.0210    50.8130 H      3298  TIP3148     0.2052
 28806 H2         -15.2100   -24.6760    49.4480 H      3298  TIP3148     0.2052
 28807 OH2        -20.2460    12.8680   -27.4820 O.3    3299  TIP3149    -0.4105
 28808 H1         -20.9490    13.4940   -27.3090 H      3299  TIP3149     0.2052
 28809 H2         -20.3310    12.2150   -26.7870 H      3299  TIP3149     0.2052
 28810 OH2         -9.2440   -25.2000    35.9280 O.3    3300  TIP3150    -0.4105
 28811 H1          -8.5010   -25.2810    36.5270 H      3300  TIP3150     0.2052
 28812 H2          -8.8460   -25.0470    35.0710 H      3300  TIP3150     0.2052
 28813 OH2         32.4550    23.5580    45.4460 O.3    3301  TIP3151    -0.4105
 28814 H1          31.7510    22.9410    45.6440 H      3301  TIP3151     0.2052
 28815 H2          32.0050    24.3430    45.1340 H      3301  TIP3151     0.2052
 28816 OH2        -14.5000    -8.3550    32.9350 O.3    3302  TIP3152    -0.4105
 28817 H1         -15.1340    -7.9960    32.3150 H      3302  TIP3152     0.2052
 28818 H2         -14.3640    -7.6540    33.5730 H      3302  TIP3152     0.2052
 28819 OH2         27.4310    32.5810   -32.3850 O.3    3303  TIP3153    -0.4105
 28820 H1          27.9680    31.7900   -32.4410 H      3303  TIP3153     0.2052
 28821 H2          27.3670    32.7620   -31.4470 H      3303  TIP3153     0.2052
 28822 OH2        -21.5630    11.8530    29.9530 O.3    3304  TIP3154    -0.4105
 28823 H1         -22.4520    12.2040    30.0140 H      3304  TIP3154     0.2052
 28824 H2         -21.1590    12.0790    30.7910 H      3304  TIP3154     0.2052
 28825 OH2        -20.6310   -22.8490   -53.0820 O.3    3305  TIP3155    -0.4105
 28826 H1         -20.4370   -23.7260   -53.4130 H      3305  TIP3155     0.2052
 28827 H2         -20.5560   -22.2810   -53.8500 H      3305  TIP3155     0.2052
 28828 OH2        -17.6700    -5.3720   -27.6460 O.3    3306  TIP3156    -0.4105
 28829 H1         -17.6100    -4.6350   -27.0380 H      3306  TIP3156     0.2052
 28830 H2         -16.9790    -5.2110   -28.2880 H      3306  TIP3156     0.2052
 28831 OH2        -15.0240    29.4570   -46.7140 O.3    3307  TIP3157    -0.4105
 28832 H1         -15.2090    29.1480   -47.6010 H      3307  TIP3157     0.2052
 28833 H2         -15.8860    29.6130   -46.3290 H      3307  TIP3157     0.2052
 28834 OH2         24.9840    14.9690   -40.7600 O.3    3308  TIP3158    -0.4105
 28835 H1          24.1160    15.2960   -40.5250 H      3308  TIP3158     0.2052
 28836 H2          25.3430    15.6380   -41.3430 H      3308  TIP3158     0.2052
 28837 OH2        -17.4780   -23.3090   -22.8690 O.3    3309  TIP3159    -0.4105
 28838 H1         -16.8290   -23.9880   -22.6860 H      3309  TIP3159     0.2052
 28839 H2         -18.2460   -23.5690   -22.3600 H      3309  TIP3159     0.2052
 28840 OH2         -3.2070    17.9300   -50.2040 O.3    3310  TIP3160    -0.4105
 28841 H1          -3.5590    18.3400   -49.4140 H      3310  TIP3160     0.2052
 28842 H2          -3.9160    17.3690   -50.5190 H      3310  TIP3160     0.2052
 28843 OH2         -6.8820   -18.2050   -47.7400 O.3    3311  TIP3161    -0.4105
 28844 H1          -7.6680   -17.7690   -48.0700 H      3311  TIP3161     0.2052
 28845 H2          -6.7280   -18.9200   -48.3570 H      3311  TIP3161     0.2052
 28846 OH2        -19.0160     9.9000   -37.4650 O.3    3312  TIP3162    -0.4105
 28847 H1         -19.0980    10.4850   -36.7120 H      3312  TIP3162     0.2052
 28848 H2         -19.8260    10.0300   -37.9590 H      3312  TIP3162     0.2052
 28849 OH2         32.5880   -25.0420   -26.9120 O.3    3313  TIP3163    -0.4105
 28850 H1          33.3310   -24.8300   -27.4770 H      3313  TIP3163     0.2052
 28851 H2          32.2990   -24.1980   -26.5670 H      3313  TIP3163     0.2052
 28852 OH2         -5.5350   -32.4320   -25.6930 O.3    3314  TIP3164    -0.4105
 28853 H1          -5.4410   -33.2540   -25.2120 H      3314  TIP3164     0.2052
 28854 H2          -5.3650   -31.7520   -25.0420 H      3314  TIP3164     0.2052
 28855 OH2         -9.4790   -32.0290   -51.6820 O.3    3315  TIP3165    -0.4105
 28856 H1         -10.4130   -32.0020   -51.4770 H      3315  TIP3165     0.2052
 28857 H2          -9.0570   -31.6050   -50.9350 H      3315  TIP3165     0.2052
 28858 OH2         18.1210    -4.4530   -18.7720 O.3    3316  TIP3166    -0.4105
 28859 H1          17.9780    -3.5080   -18.7260 H      3316  TIP3166     0.2052
 28860 H2          17.9130    -4.7700   -17.8930 H      3316  TIP3166     0.2052
 28861 OH2         19.9360     7.5040   -30.0360 O.3    3317  TIP3167    -0.4105
 28862 H1          20.5810     7.6800   -30.7210 H      3317  TIP3167     0.2052
 28863 H2          20.3040     7.9090   -29.2500 H      3317  TIP3167     0.2052
 28864 OH2         15.0710    25.9720    55.2470 O.3    3318  TIP3168    -0.4105
 28865 H1          15.7550    25.3180    55.0990 H      3318  TIP3168     0.2052
 28866 H2          15.1130    26.1560    56.1850 H      3318  TIP3168     0.2052
 28867 OH2        -17.9860    15.4910   -31.1870 O.3    3319  TIP3169    -0.4105
 28868 H1         -17.9500    14.9200   -30.4190 H      3319  TIP3169     0.2052
 28869 H2         -17.1120    15.8790   -31.2390 H      3319  TIP3169     0.2052
 28870 OH2         -2.7010    16.3380   -54.8070 O.3    3320  TIP3170    -0.4105
 28871 H1          -2.5230    17.2430   -54.5530 H      3320  TIP3170     0.2052
 28872 H2          -3.1810    16.4090   -55.6320 H      3320  TIP3170     0.2052
 28873 OH2         18.4950   -24.0040    42.2970 O.3    3321  TIP3171    -0.4105
 28874 H1          17.6850   -24.4000    42.6210 H      3321  TIP3171     0.2052
 28875 H2          19.1240   -24.7250    42.2780 H      3321  TIP3171     0.2052
 28876 OH2         18.3520     9.3980   -51.5820 O.3    3322  TIP3172    -0.4105
 28877 H1          18.1260    10.1710   -52.0990 H      3322  TIP3172     0.2052
 28878 H2          18.6500     8.7560   -52.2270 H      3322  TIP3172     0.2052
 28879 OH2        -26.1390     2.7980   -23.5480 O.3    3323  TIP3173    -0.4105
 28880 H1         -26.9660     3.1940   -23.2740 H      3323  TIP3173     0.2052
 28881 H2         -25.9480     2.1480   -22.8710 H      3323  TIP3173     0.2052
 28882 OH2         21.0380    -7.0060    19.1560 O.3    3324  TIP3174    -0.4105
 28883 H1          20.7950    -7.3580    20.0130 H      3324  TIP3174     0.2052
 28884 H2          20.8270    -7.7070    18.5400 H      3324  TIP3174     0.2052
 28885 OH2         11.4560   -23.2850   -27.8300 O.3    3325  TIP3175    -0.4105
 28886 H1          11.7240   -22.8510   -28.6400 H      3325  TIP3175     0.2052
 28887 H2          10.6750   -22.8090   -27.5490 H      3325  TIP3175     0.2052
 28888 OH2        -21.1310   -18.1450   -49.8170 O.3    3326  TIP3176    -0.4105
 28889 H1         -21.2770   -18.3330   -48.8900 H      3326  TIP3176     0.2052
 28890 H2         -21.9480   -17.7440   -50.1130 H      3326  TIP3176     0.2052
 28891 OH2          7.4820   -19.6450   -52.3420 O.3    3327  TIP3177    -0.4105
 28892 H1           8.0090   -19.4940   -53.1260 H      3327  TIP3177     0.2052
 28893 H2           6.8640   -20.3310   -52.5970 H      3327  TIP3177     0.2052
 28894 OH2         29.6370     4.8530    17.9900 O.3    3328  TIP3178    -0.4105
 28895 H1          29.8790     5.7590    18.1790 H      3328  TIP3178     0.2052
 28896 H2          29.8380     4.3780    18.7960 H      3328  TIP3178     0.2052
 28897 OH2         15.6330    -3.9650    54.6970 O.3    3329  TIP3179    -0.4105
 28898 H1          15.7660    -3.2480    55.3180 H      3329  TIP3179     0.2052
 28899 H2          14.7100    -3.9010    54.4510 H      3329  TIP3179     0.2052
 28900 OH2         -1.5980   -20.3320   -18.7480 O.3    3330  TIP3180    -0.4105
 28901 H1          -1.1430   -19.5670   -18.3970 H      3330  TIP3180     0.2052
 28902 H2          -1.0930   -21.0800   -18.4270 H      3330  TIP3180     0.2052
 28903 OH2         32.8450     3.5890    39.3750 O.3    3331  TIP3181    -0.4105
 28904 H1          32.8420     4.1770    40.1300 H      3331  TIP3181     0.2052
 28905 H2          32.9180     4.1700    38.6180 H      3331  TIP3181     0.2052
 28906 OH2        -22.1910   -16.7220    50.6400 O.3    3332  TIP3182    -0.4105
 28907 H1         -21.6280   -16.5280    51.3890 H      3332  TIP3182     0.2052
 28908 H2         -22.3350   -15.8740    50.2210 H      3332  TIP3182     0.2052
 28909 OH2        -20.6670   -27.9380    20.2620 O.3    3333  TIP3183    -0.4105
 28910 H1         -21.1960   -27.8190    19.4730 H      3333  TIP3183     0.2052
 28911 H2         -20.6620   -27.0770    20.6800 H      3333  TIP3183     0.2052
 28912 OH2        -19.7230   -27.8760    16.7300 O.3    3334  TIP3184    -0.4105
 28913 H1         -20.2530   -27.2590    17.2340 H      3334  TIP3184     0.2052
 28914 H2         -19.3510   -28.4650    17.3860 H      3334  TIP3184     0.2052
 28915 OH2         13.9270   -20.2560    22.3690 O.3    3335  TIP3185    -0.4105
 28916 H1          13.1170   -20.1150    21.8780 H      3335  TIP3185     0.2052
 28917 H2          14.3070   -21.0460    21.9840 H      3335  TIP3185     0.2052
 28918 OH2          3.8600     1.8470    44.5290 O.3    3336  TIP3186    -0.4105
 28919 H1           3.0780     1.5490    44.9930 H      3336  TIP3186     0.2052
 28920 H2           3.5230     2.3560    43.7920 H      3336  TIP3186     0.2052
 28921 OH2        -28.3890    17.9580    37.1910 O.3    3337  TIP3187    -0.4105
 28922 H1         -27.9480    18.4720    36.5140 H      3337  TIP3187     0.2052
 28923 H2         -29.1000    18.5220    37.4950 H      3337  TIP3187     0.2052
 28924 OH2         -7.1940   -31.8990    40.1900 O.3    3338  TIP3188    -0.4105
 28925 H1          -8.0170   -32.2040    39.8090 H      3338  TIP3188     0.2052
 28926 H2          -6.5170   -32.2640    39.6210 H      3338  TIP3188     0.2052
 28927 OH2         11.1580   -24.4610   -52.5730 O.3    3339  TIP3189    -0.4105
 28928 H1          11.2460   -24.0800   -53.4470 H      3339  TIP3189     0.2052
 28929 H2          12.0550   -24.5220   -52.2460 H      3339  TIP3189     0.2052
 28930 OH2         -6.3410    20.7790    45.6700 O.3    3340  TIP3190    -0.4105
 28931 H1          -6.8510    20.5910    46.4580 H      3340  TIP3190     0.2052
 28932 H2          -5.4600    20.9680    45.9940 H      3340  TIP3190     0.2052
 28933 OH2         27.8660    -7.3050   -26.9840 O.3    3341  TIP3191    -0.4105
 28934 H1          28.7710    -7.5140   -26.7520 H      3341  TIP3191     0.2052
 28935 H2          27.8840    -6.3730   -27.2020 H      3341  TIP3191     0.2052
 28936 OH2        -13.9410    -0.6790   -42.4730 O.3    3342  TIP3192    -0.4105
 28937 H1         -13.4750     0.1200   -42.2290 H      3342  TIP3192     0.2052
 28938 H2         -13.7110    -0.8190   -43.3920 H      3342  TIP3192     0.2052
 28939 OH2        -12.5620     2.4040    40.3440 O.3    3343  TIP3193    -0.4105
 28940 H1         -12.6630     1.9360    41.1730 H      3343  TIP3193     0.2052
 28941 H2         -13.4470     2.6940    40.1240 H      3343  TIP3193     0.2052
 28942 OH2         -7.6700    10.9750   -49.7360 O.3    3344  TIP3194    -0.4105
 28943 H1          -8.2450    10.8950   -48.9750 H      3344  TIP3194     0.2052
 28944 H2          -8.2160    10.7100   -50.4770 H      3344  TIP3194     0.2052
 28945 OH2        -32.8470   -32.7580   -21.3020 O.3    3345  TIP3195    -0.4105
 28946 H1         -32.1730   -32.3920   -21.8750 H      3345  TIP3195     0.2052
 28947 H2         -32.4040   -32.8880   -20.4630 H      3345  TIP3195     0.2052
 28948 OH2        -31.6940    15.8320    42.7680 O.3    3346  TIP3196    -0.4105
 28949 H1         -31.4650    15.3180    43.5420 H      3346  TIP3196     0.2052
 28950 H2         -32.3570    16.4490    43.0770 H      3346  TIP3196     0.2052
 28951 OH2         25.0330    14.0370   -52.5000 O.3    3347  TIP3197    -0.4105
 28952 H1          25.2620    14.5430   -51.7210 H      3347  TIP3197     0.2052
 28953 H2          25.6630    13.3170   -52.5130 H      3347  TIP3197     0.2052
 28954 OH2         -5.3620    26.0940    30.7400 O.3    3348  TIP3198    -0.4105
 28955 H1          -6.3030    26.0450    30.9050 H      3348  TIP3198     0.2052
 28956 H2          -5.2890    26.5630    29.9090 H      3348  TIP3198     0.2052
 28957 OH2         23.3570     3.7010    26.5320 O.3    3349  TIP3199    -0.4105
 28958 H1          23.5560     4.4670    25.9940 H      3349  TIP3199     0.2052
 28959 H2          22.9410     3.0850    25.9290 H      3349  TIP3199     0.2052
 28960 OH2         29.9700   -30.0080    27.3070 O.3    3350  TIP3200    -0.4105
 28961 H1          29.5450   -30.8100    27.6110 H      3350  TIP3200     0.2052
 28962 H2          29.2520   -29.3870    27.1850 H      3350  TIP3200     0.2052
 28963 OH2         -1.8750     6.7890   -14.4940 O.3    3351  TIP3201    -0.4105
 28964 H1          -2.7950     6.9940   -14.6580 H      3351  TIP3201     0.2052
 28965 H2          -1.8870     6.2490   -13.7040 H      3351  TIP3201     0.2052
 28966 OH2         11.8320   -20.7100    44.3160 O.3    3352  TIP3202    -0.4105
 28967 H1          11.8910   -21.6270    44.0470 H      3352  TIP3202     0.2052
 28968 H2          11.9430   -20.7320    45.2660 H      3352  TIP3202     0.2052
 28969 OH2         11.3980    -3.1220    40.6880 O.3    3353  TIP3203    -0.4105
 28970 H1          10.5110    -3.2930    40.3700 H      3353  TIP3203     0.2052
 28971 H2          11.5180    -2.1800    40.5680 H      3353  TIP3203     0.2052
 28972 OH2         28.6100   -27.6360   -39.7440 O.3    3354  TIP3204    -0.4105
 28973 H1          29.3190   -27.9870   -40.2820 H      3354  TIP3204     0.2052
 28974 H2          28.2670   -28.3970   -39.2740 H      3354  TIP3204     0.2052
 28975 OH2         -4.6930    22.4600   -34.9490 O.3    3355  TIP3205    -0.4105
 28976 H1          -5.4780    22.6300   -35.4700 H      3355  TIP3205     0.2052
 28977 H2          -4.0160    23.0030   -35.3520 H      3355  TIP3205     0.2052
 28978 OH2         16.5010    26.4240   -34.4550 O.3    3356  TIP3206    -0.4105
 28979 H1          16.9240    25.7980   -35.0420 H      3356  TIP3206     0.2052
 28980 H2          16.1120    25.8830   -33.7680 H      3356  TIP3206     0.2052
 28981 OH2        -10.8810    21.4320    51.4630 O.3    3357  TIP3207    -0.4105
 28982 H1         -11.2830    20.5710    51.5800 H      3357  TIP3207     0.2052
 28983 H2         -10.2500    21.5010    52.1800 H      3357  TIP3207     0.2052
 28984 OH2        -30.1080    25.6660   -28.7110 O.3    3358  TIP3208    -0.4105
 28985 H1         -29.4400    25.8490   -28.0510 H      3358  TIP3208     0.2052
 28986 H2         -29.6150    25.5180   -29.5170 H      3358  TIP3208     0.2052
 28987 OH2        -18.0570     7.4150    49.7240 O.3    3359  TIP3209    -0.4105
 28988 H1         -17.3050     7.2390    50.2890 H      3359  TIP3209     0.2052
 28989 H2         -18.7950     6.9990    50.1690 H      3359  TIP3209     0.2052
 28990 OH2         -8.3940     7.4740   -46.8850 O.3    3360  TIP3210    -0.4105
 28991 H1          -7.7300     6.8680   -46.5550 H      3360  TIP3210     0.2052
 28992 H2          -8.3390     8.2310   -46.3020 H      3360  TIP3210     0.2052
 28993 OH2         32.9150   -25.5280   -35.7460 O.3    3361  TIP3211    -0.4105
 28994 H1          32.4650   -24.6830   -35.7290 H      3361  TIP3211     0.2052
 28995 H2          32.2470   -26.1500   -36.0340 H      3361  TIP3211     0.2052
 28996 OH2         -9.9460   -21.6120   -21.6660 O.3    3362  TIP3212    -0.4105
 28997 H1         -10.2170   -22.3950   -21.1880 H      3362  TIP3212     0.2052
 28998 H2         -10.3310   -20.8860   -21.1750 H      3362  TIP3212     0.2052
 28999 OH2         -1.7570   -13.3630    34.4490 O.3    3363  TIP3213    -0.4105
 29000 H1          -1.9370   -12.8360    33.6700 H      3363  TIP3213     0.2052
 29001 H2          -1.5450   -14.2320    34.1070 H      3363  TIP3213     0.2052
 29002 OH2          7.0040    12.0840   -46.6620 O.3    3364  TIP3214    -0.4105
 29003 H1           6.1160    11.7600   -46.8150 H      3364  TIP3214     0.2052
 29004 H2           7.2400    11.7380   -45.8020 H      3364  TIP3214     0.2052
 29005 OH2          1.7960    13.0660    44.5340 O.3    3365  TIP3215    -0.4105
 29006 H1           2.3490    12.5120    43.9830 H      3365  TIP3215     0.2052
 29007 H2           1.1250    13.4030    43.9400 H      3365  TIP3215     0.2052
 29008 OH2         10.0020   -11.2450   -55.0310 O.3    3366  TIP3216    -0.4105
 29009 H1           9.3300   -11.3220   -55.7090 H      3366  TIP3216     0.2052
 29010 H2          10.3800   -12.1220   -54.9680 H      3366  TIP3216     0.2052
 29011 OH2         26.6620     2.4970    33.7410 O.3    3367  TIP3217    -0.4105
 29012 H1          26.6950     1.5410    33.7750 H      3367  TIP3217     0.2052
 29013 H2          26.8990     2.7770    34.6250 H      3367  TIP3217     0.2052
 29014 OH2         29.8610     9.7040    53.6060 O.3    3368  TIP3218    -0.4105
 29015 H1          29.0380     9.6020    53.1280 H      3368  TIP3218     0.2052
 29016 H2          30.5180     9.2940    53.0430 H      3368  TIP3218     0.2052
 29017 OH2        -13.6670    10.3530    51.9970 O.3    3369  TIP3219    -0.4105
 29018 H1         -13.0820     9.6970    52.3750 H      3369  TIP3219     0.2052
 29019 H2         -14.2170    10.6340    52.7280 H      3369  TIP3219     0.2052
 29020 OH2         19.5300   -31.4260    18.0520 O.3    3370  TIP3220    -0.4105
 29021 H1          19.8630   -32.0470    18.7000 H      3370  TIP3220     0.2052
 29022 H2          19.7660   -30.5660    18.4000 H      3370  TIP3220     0.2052
 29023 OH2         31.4610    -8.7490   -39.7650 O.3    3371  TIP3221    -0.4105
 29024 H1          32.3320    -8.3560   -39.8170 H      3371  TIP3221     0.2052
 29025 H2          31.0820    -8.6070   -40.6320 H      3371  TIP3221     0.2052
 29026 OH2         13.6830   -28.9410    35.6770 O.3    3372  TIP3222    -0.4105
 29027 H1          13.7060   -28.1610    35.1230 H      3372  TIP3222     0.2052
 29028 H2          12.8920   -28.8360    36.2060 H      3372  TIP3222     0.2052
 29029 OH2          7.7590   -20.5130    46.3730 O.3    3373  TIP3223    -0.4105
 29030 H1           7.3050   -21.1390    45.8090 H      3373  TIP3223     0.2052
 29031 H2           8.6270   -20.8930    46.5040 H      3373  TIP3223     0.2052
 29032 OH2        -28.9680    15.5060   -35.8190 O.3    3374  TIP3224    -0.4105
 29033 H1         -29.8110    15.1640   -35.5190 H      3374  TIP3224     0.2052
 29034 H2         -28.3210    14.9020   -35.4550 H      3374  TIP3224     0.2052
 29035 OH2        -29.0010    15.3600    31.2610 O.3    3375  TIP3225    -0.4105
 29036 H1         -28.6850    14.5010    31.5420 H      3375  TIP3225     0.2052
 29037 H2         -28.7870    15.4010    30.3290 H      3375  TIP3225     0.2052
 29038 OH2         19.1840    27.0530   -50.0150 O.3    3376  TIP3226    -0.4105
 29039 H1          19.1570    27.1810   -50.9630 H      3376  TIP3226     0.2052
 29040 H2          18.7150    27.8070   -49.6580 H      3376  TIP3226     0.2052
 29041 OH2        -18.1940   -21.0690    39.3920 O.3    3377  TIP3227    -0.4105
 29042 H1         -17.9890   -21.3130    40.2940 H      3377  TIP3227     0.2052
 29043 H2         -19.0110   -20.5740    39.4570 H      3377  TIP3227     0.2052
 29044 OH2         27.6200    19.9730    38.1130 O.3    3378  TIP3228    -0.4105
 29045 H1          28.4550    20.0260    38.5780 H      3378  TIP3228     0.2052
 29046 H2          27.4360    20.8740    37.8470 H      3378  TIP3228     0.2052
 29047 OH2         14.5090    18.2570   -47.4560 O.3    3379  TIP3229    -0.4105
 29048 H1          14.1380    17.3780   -47.3810 H      3379  TIP3229     0.2052
 29049 H2          13.9330    18.8060   -46.9240 H      3379  TIP3229     0.2052
 29050 OH2         15.0180   -10.5080   -44.2680 O.3    3380  TIP3230    -0.4105
 29051 H1          14.6220   -10.6330   -43.4060 H      3380  TIP3230     0.2052
 29052 H2          14.4810   -11.0360   -44.8590 H      3380  TIP3230     0.2052
 29053 OH2        -17.9450    -1.7300   -43.7550 O.3    3381  TIP3231    -0.4105
 29054 H1         -17.1810    -1.1590   -43.6660 H      3381  TIP3231     0.2052
 29055 H2         -18.5880    -1.1990   -44.2250 H      3381  TIP3231     0.2052
 29056 OH2         12.9740    14.3570    51.7720 O.3    3382  TIP3232    -0.4105
 29057 H1          12.0780    14.1500    52.0370 H      3382  TIP3232     0.2052
 29058 H2          12.8740    14.9430    51.0220 H      3382  TIP3232     0.2052
 29059 OH2        -31.2080    32.3160   -46.4550 O.3    3383  TIP3233    -0.4105
 29060 H1         -31.7910    32.2400   -47.2110 H      3383  TIP3233     0.2052
 29061 H2         -30.5560    31.6280   -46.5860 H      3383  TIP3233     0.2052
 29062 OH2        -21.8370   -16.6440    45.9170 O.3    3384  TIP3234    -0.4105
 29063 H1         -21.8150   -17.1950    46.6990 H      3384  TIP3234     0.2052
 29064 H2         -22.7470   -16.6810    45.6220 H      3384  TIP3234     0.2052
 29065 OH2        -14.0960   -26.8980   -43.8380 O.3    3385  TIP3235    -0.4105
 29066 H1         -14.8380   -26.6520   -44.3900 H      3385  TIP3235     0.2052
 29067 H2         -14.3470   -27.7400   -43.4590 H      3385  TIP3235     0.2052
 29068 OH2        -13.2920    27.5190    38.8530 O.3    3386  TIP3236    -0.4105
 29069 H1         -13.2870    28.4740    38.7960 H      3386  TIP3236     0.2052
 29070 H2         -14.0940    27.3110    39.3320 H      3386  TIP3236     0.2052
 29071 OH2          4.7850     1.8750    37.0630 O.3    3387  TIP3237    -0.4105
 29072 H1           5.6910     1.7240    37.3320 H      3387  TIP3237     0.2052
 29073 H2           4.3090     1.1070    37.3780 H      3387  TIP3237     0.2052
 29074 OH2         17.9750     7.0810    42.9810 O.3    3388  TIP3238    -0.4105
 29075 H1          17.3960     6.3190    42.9610 H      3388  TIP3238     0.2052
 29076 H2          17.7270     7.5910    42.2100 H      3388  TIP3238     0.2052
 29077 OH2         27.1340   -25.5580   -32.0860 O.3    3389  TIP3239    -0.4105
 29078 H1          27.9020   -25.2690   -31.5930 H      3389  TIP3239     0.2052
 29079 H2          27.3510   -26.4470   -32.3670 H      3389  TIP3239     0.2052
 29080 OH2        -17.5500    12.6550    32.2440 O.3    3390  TIP3240    -0.4105
 29081 H1         -16.7870    13.2300    32.3130 H      3390  TIP3240     0.2052
 29082 H2         -17.2780    11.9690    31.6330 H      3390  TIP3240     0.2052
 29083 OH2        -23.5910     5.6440    44.0190 O.3    3391  TIP3241    -0.4105
 29084 H1         -23.0870     5.4370    44.8060 H      3391  TIP3241     0.2052
 29085 H2         -22.9390     5.9640    43.3940 H      3391  TIP3241     0.2052
 29086 OH2         10.5410     2.8090    52.1710 O.3    3392  TIP3242    -0.4105
 29087 H1          11.1400     2.6530    52.9010 H      3392  TIP3242     0.2052
 29088 H2          10.7280     3.7060    51.8960 H      3392  TIP3242     0.2052
 29089 OH2        -23.0000     1.6140   -21.0910 O.3    3393  TIP3243    -0.4105
 29090 H1         -23.8920     1.2750   -21.1590 H      3393  TIP3243     0.2052
 29091 H2         -22.8260     1.6460   -20.1500 H      3393  TIP3243     0.2052
 29092 OH2          6.1660    12.0410   -20.9120 O.3    3394  TIP3244    -0.4105
 29093 H1           5.3890    11.8240   -20.3970 H      3394  TIP3244     0.2052
 29094 H2           5.9470    12.8700   -21.3390 H      3394  TIP3244     0.2052
 29095 OH2         -3.9080    -9.1190    33.8960 O.3    3395  TIP3245    -0.4105
 29096 H1          -4.8130    -9.1260    33.5840 H      3395  TIP3245     0.2052
 29097 H2          -3.9000    -9.7420    34.6230 H      3395  TIP3245     0.2052
 29098 OH2         25.5880   -13.9470   -42.6280 O.3    3396  TIP3246    -0.4105
 29099 H1          25.4090   -14.6510   -42.0040 H      3396  TIP3246     0.2052
 29100 H2          26.0750   -14.3700   -43.3350 H      3396  TIP3246     0.2052
 29101 OH2         22.2360    -5.3780    54.2930 O.3    3397  TIP3247    -0.4105
 29102 H1          22.7180    -5.0920    53.5180 H      3397  TIP3247     0.2052
 29103 H2          21.7290    -4.6100    54.5570 H      3397  TIP3247     0.2052
 29104 OH2         -4.4790    33.0360    27.2940 O.3    3398  TIP3248    -0.4105
 29105 H1          -3.6240    32.6390    27.4600 H      3398  TIP3248     0.2052
 29106 H2          -4.4750    33.8400    27.8120 H      3398  TIP3248     0.2052
 29107 OH2          0.1630    30.2570   -52.6720 O.3    3399  TIP3249    -0.4105
 29108 H1          -0.6240    30.7480   -52.9070 H      3399  TIP3249     0.2052
 29109 H2           0.7440    30.3600   -53.4260 H      3399  TIP3249     0.2052
 29110 OH2          3.6010     3.5960   -34.6420 O.3    3400  TIP3250    -0.4105
 29111 H1           3.1410     4.3860   -34.9260 H      3400  TIP3250     0.2052
 29112 H2           4.0050     3.2540   -35.4400 H      3400  TIP3250     0.2052
 29113 OH2         -5.6330    14.2040   -45.1570 O.3    3401  TIP3251    -0.4105
 29114 H1          -6.5470    14.2230   -44.8750 H      3401  TIP3251     0.2052
 29115 H2          -5.5630    13.4120   -45.6900 H      3401  TIP3251     0.2052
 29116 OH2         32.1980    12.0450   -29.6750 O.3    3402  TIP3252    -0.4105
 29117 H1          32.6060    12.9080   -29.6100 H      3402  TIP3252     0.2052
 29118 H2          32.8570    11.4420   -29.3310 H      3402  TIP3252     0.2052
 29119 OH2        -29.0170    30.1250   -42.9520 O.3    3403  TIP3253    -0.4105
 29120 H1         -29.0780    29.5490   -43.7140 H      3403  TIP3253     0.2052
 29121 H2         -29.2480    30.9910   -43.2870 H      3403  TIP3253     0.2052
 29122 OH2        -27.4530    -1.1400   -44.4330 O.3    3404  TIP3254    -0.4105
 29123 H1         -27.1490    -1.0570   -43.5290 H      3404  TIP3254     0.2052
 29124 H2         -27.4530    -2.0820   -44.6010 H      3404  TIP3254     0.2052
 29125 OH2         22.3550     5.3910    34.1060 O.3    3405  TIP3255    -0.4105
 29126 H1          23.1950     5.1960    34.5210 H      3405  TIP3255     0.2052
 29127 H2          22.3980     4.9500    33.2580 H      3405  TIP3255     0.2052
 29128 OH2        -21.7520    -1.7660   -35.9370 O.3    3406  TIP3256    -0.4105
 29129 H1         -20.9410    -1.5970   -36.4170 H      3406  TIP3256     0.2052
 29130 H2         -21.5650    -1.4810   -35.0420 H      3406  TIP3256     0.2052
 29131 OH2        -16.4120   -13.1050    36.5410 O.3    3407  TIP3257    -0.4105
 29132 H1         -15.9250   -12.2810    36.5500 H      3407  TIP3257     0.2052
 29133 H2         -15.9440   -13.6670    37.1580 H      3407  TIP3257     0.2052
 29134 OH2        -17.2480     0.2420   -25.0650 O.3    3408  TIP3258    -0.4105
 29135 H1         -17.1190     0.4150   -25.9980 H      3408  TIP3258     0.2052
 29136 H2         -16.7060    -0.5260   -24.8870 H      3408  TIP3258     0.2052
 29137 OH2          7.1840    29.2670    16.3800 O.3    3409  TIP3259    -0.4105
 29138 H1           7.2870    28.3420    16.1570 H      3409  TIP3259     0.2052
 29139 H2           7.8080    29.7210    15.8140 H      3409  TIP3259     0.2052
 29140 OH2        -31.6430   -11.8770    35.3440 O.3    3410  TIP3260    -0.4105
 29141 H1         -32.1430   -12.5200    34.8410 H      3410  TIP3260     0.2052
 29142 H2         -32.2440   -11.1400    35.4550 H      3410  TIP3260     0.2052
 29143 OH2        -24.1400   -16.1250    26.3970 O.3    3411  TIP3261    -0.4105
 29144 H1         -25.0130   -15.7330    26.3900 H      3411  TIP3261     0.2052
 29145 H2         -24.2450   -16.9360    26.8950 H      3411  TIP3261     0.2052
 29146 OH2         -6.5780   -10.9140   -44.2280 O.3    3412  TIP3262    -0.4105
 29147 H1          -5.9560   -10.1870   -44.2220 H      3412  TIP3262     0.2052
 29148 H2          -6.2120   -11.5390   -44.8530 H      3412  TIP3262     0.2052
 29149 OH2        -27.6350    -5.3510    24.0040 O.3    3413  TIP3263    -0.4105
 29150 H1         -27.2080    -5.4370    24.8570 H      3413  TIP3263     0.2052
 29151 H2         -26.9150    -5.3510    23.3740 H      3413  TIP3263     0.2052
 29152 OH2         29.3990    11.8590   -42.1900 O.3    3414  TIP3264    -0.4105
 29153 H1          28.8500    11.9960   -42.9620 H      3414  TIP3264     0.2052
 29154 H2          30.1330    12.4620   -42.3070 H      3414  TIP3264     0.2052
 29155 OH2         32.2500    31.9630   -34.3790 O.3    3415  TIP3265    -0.4105
 29156 H1          31.4200    32.0830   -33.9180 H      3415  TIP3265     0.2052
 29157 H2          32.0960    31.2190   -34.9610 H      3415  TIP3265     0.2052
 29158 OH2        -11.0480     6.5260   -15.1450 O.3    3416  TIP3266    -0.4105
 29159 H1         -11.0180     7.1980   -15.8260 H      3416  TIP3266     0.2052
 29160 H2         -11.2120     5.7110   -15.6190 H      3416  TIP3266     0.2052
 29161 OH2        -21.5920   -30.9170   -47.5810 O.3    3417  TIP3267    -0.4105
 29162 H1         -21.9790   -31.7470   -47.3030 H      3417  TIP3267     0.2052
 29163 H2         -20.8470   -31.1710   -48.1260 H      3417  TIP3267     0.2052
 29164 OH2        -25.8370   -11.9650   -54.6810 O.3    3418  TIP3268    -0.4105
 29165 H1         -26.0140   -12.7030   -55.2640 H      3418  TIP3268     0.2052
 29166 H2         -24.9740   -12.1530   -54.3110 H      3418  TIP3268     0.2052
 29167 OH2         31.7330    -2.1080    48.6320 O.3    3419  TIP3269    -0.4105
 29168 H1          32.6550    -1.9350    48.8220 H      3419  TIP3269     0.2052
 29169 H2          31.2850    -1.2930    48.8580 H      3419  TIP3269     0.2052
 29170 OH2        -31.0320   -32.1230    16.9010 O.3    3420  TIP3270    -0.4105
 29171 H1         -30.8260   -32.9060    16.3900 H      3420  TIP3270     0.2052
 29172 H2         -30.9730   -31.4040    16.2720 H      3420  TIP3270     0.2052
 29173 OH2        -20.1470    21.5190    48.7130 O.3    3421  TIP3271    -0.4105
 29174 H1         -19.6570    22.2340    48.3070 H      3421  TIP3271     0.2052
 29175 H2         -19.4990    20.8260    48.8390 H      3421  TIP3271     0.2052
 29176 OH2        -26.1570   -27.2750   -51.1840 O.3    3422  TIP3272    -0.4105
 29177 H1         -26.4130   -26.3880   -51.4380 H      3422  TIP3272     0.2052
 29178 H2         -25.2230   -27.3230   -51.3870 H      3422  TIP3272     0.2052
 29179 OH2          2.5260     6.8860   -32.7080 O.3    3423  TIP3273    -0.4105
 29180 H1           3.3220     6.9610   -32.1810 H      3423  TIP3273     0.2052
 29181 H2           2.1760     6.0220   -32.4930 H      3423  TIP3273     0.2052
 29182 OH2        -24.9290     3.9260    51.8110 O.3    3424  TIP3274    -0.4105
 29183 H1         -24.6850     3.6730    52.7010 H      3424  TIP3274     0.2052
 29184 H2         -24.9410     3.1030    51.3220 H      3424  TIP3274     0.2052
 29185 OH2        -30.2520    -2.2950   -47.0130 O.3    3425  TIP3275    -0.4105
 29186 H1         -29.9020    -2.5000   -46.1460 H      3425  TIP3275     0.2052
 29187 H2         -31.1280    -1.9490   -46.8430 H      3425  TIP3275     0.2052
 29188 OH2        -25.0270   -20.2250   -25.6810 O.3    3426  TIP3276    -0.4105
 29189 H1         -25.7070   -19.8760   -26.2570 H      3426  TIP3276     0.2052
 29190 H2         -24.2290   -20.2030   -26.2100 H      3426  TIP3276     0.2052
 29191 OH2         32.4890   -20.9140   -26.4930 O.3    3427  TIP3277    -0.4105
 29192 H1          32.9080   -21.1190   -27.3290 H      3427  TIP3277     0.2052
 29193 H2          31.9870   -20.1180   -26.6650 H      3427  TIP3277     0.2052
 29194 OH2        -32.1850    26.9230   -20.4650 O.3    3428  TIP3278    -0.4105
 29195 H1         -32.8540    27.3470   -21.0030 H      3428  TIP3278     0.2052
 29196 H2         -32.6710    26.2980   -19.9260 H      3428  TIP3278     0.2052
 29197 OH2         27.3460    -6.7550    37.6440 O.3    3429  TIP3279    -0.4105
 29198 H1          27.4860    -6.0560    37.0050 H      3429  TIP3279     0.2052
 29199 H2          28.1060    -7.3280    37.5430 H      3429  TIP3279     0.2052
 29200 OH2          5.7970    27.9890    23.4790 O.3    3430  TIP3280    -0.4105
 29201 H1           6.0970    27.4270    22.7640 H      3430  TIP3280     0.2052
 29202 H2           5.2630    28.6580    23.0500 H      3430  TIP3280     0.2052
 29203 OH2         10.2190     1.8030    39.0230 O.3    3431  TIP3281    -0.4105
 29204 H1          10.1460     2.4350    38.3090 H      3431  TIP3281     0.2052
 29205 H2          10.9810     1.2690    38.7950 H      3431  TIP3281     0.2052
 29206 OH2        -16.2510    -9.8700   -32.9770 O.3    3432  TIP3282    -0.4105
 29207 H1         -16.7590   -10.1640   -33.7320 H      3432  TIP3282     0.2052
 29208 H2         -16.6810    -9.0620   -32.6980 H      3432  TIP3282     0.2052
 29209 OH2         22.0240     0.8360    44.0540 O.3    3433  TIP3283    -0.4105
 29210 H1          21.6600     1.5850    43.5820 H      3433  TIP3283     0.2052
 29211 H2          22.0500     0.1330    43.4040 H      3433  TIP3283     0.2052
 29212 OH2        -31.6950    12.4950   -49.9260 O.3    3434  TIP3284    -0.4105
 29213 H1         -31.6720    11.9600   -50.7200 H      3434  TIP3284     0.2052
 29214 H2         -32.6020    12.4410   -49.6260 H      3434  TIP3284     0.2052
 29215 OH2         15.0330     7.2590   -41.6360 O.3    3435  TIP3285    -0.4105
 29216 H1          14.8070     8.0870   -42.0590 H      3435  TIP3285     0.2052
 29217 H2          14.8980     7.4210   -40.7020 H      3435  TIP3285     0.2052
 29218 OH2        -20.8210    32.5670    52.4750 O.3    3436  TIP3286    -0.4105
 29219 H1         -21.3310    32.7700    53.2590 H      3436  TIP3286     0.2052
 29220 H2         -20.0890    33.1830    52.4970 H      3436  TIP3286     0.2052
 29221 OH2        -10.8670   -15.4320    49.8070 O.3    3437  TIP3287    -0.4105
 29222 H1         -11.6070   -14.8780    49.5590 H      3437  TIP3287     0.2052
 29223 H2         -10.8390   -15.3820    50.7630 H      3437  TIP3287     0.2052
 29224 OH2        -18.1930    -6.3240   -49.4980 O.3    3438  TIP3288    -0.4105
 29225 H1         -18.1350    -7.0850   -50.0770 H      3438  TIP3288     0.2052
 29226 H2         -17.9980    -5.5770   -50.0640 H      3438  TIP3288     0.2052
 29227 OH2         16.6410   -23.2390   -43.4910 O.3    3439  TIP3289    -0.4105
 29228 H1          17.1510   -23.5540   -42.7450 H      3439  TIP3289     0.2052
 29229 H2          15.8390   -23.7610   -43.4720 H      3439  TIP3289     0.2052
 29230 OH2         26.8330   -19.9110   -34.2340 O.3    3440  TIP3290    -0.4105
 29231 H1          26.0240   -19.4150   -34.3650 H      3440  TIP3290     0.2052
 29232 H2          26.9270   -20.4310   -35.0320 H      3440  TIP3290     0.2052
 29233 OH2        -26.3820    32.4250   -19.5600 O.3    3441  TIP3291    -0.4105
 29234 H1         -26.7610    33.2260   -19.1970 H      3441  TIP3291     0.2052
 29235 H2         -27.1290    31.9490   -19.9220 H      3441  TIP3291     0.2052
 29236 OH2        -19.5180     7.4570   -50.7110 O.3    3442  TIP3292    -0.4105
 29237 H1         -19.7670     8.2860   -50.3030 H      3442  TIP3292     0.2052
 29238 H2         -20.1720     6.8310   -50.4010 H      3442  TIP3292     0.2052
 29239 OH2         -8.2160   -23.1540   -52.3060 O.3    3443  TIP3293    -0.4105
 29240 H1          -7.3390   -22.8900   -52.5850 H      3443  TIP3293     0.2052
 29241 H2          -8.3670   -22.6670   -51.4960 H      3443  TIP3293     0.2052
 29242 OH2         17.5480     0.9420   -18.2190 O.3    3444  TIP3294    -0.4105
 29243 H1          18.1490     1.6840   -18.2960 H      3444  TIP3294     0.2052
 29244 H2          16.7830     1.3000   -17.7680 H      3444  TIP3294     0.2052
 29245 OH2          9.0180     6.2360    37.7030 O.3    3445  TIP3295    -0.4105
 29246 H1           9.8630     6.6790    37.7790 H      3445  TIP3295     0.2052
 29247 H2           8.5790     6.6790    36.9770 H      3445  TIP3295     0.2052
 29248 OH2        -22.3350    -7.6890    36.2230 O.3    3446  TIP3296    -0.4105
 29249 H1         -21.5840    -7.9490    35.6890 H      3446  TIP3296     0.2052
 29250 H2         -22.9790    -8.3830    36.0870 H      3446  TIP3296     0.2052
 29251 OH2         14.2110    27.5280   -27.2840 O.3    3447  TIP3297    -0.4105
 29252 H1          14.4570    27.2630   -28.1710 H      3447  TIP3297     0.2052
 29253 H2          15.0420    27.7400   -26.8590 H      3447  TIP3297     0.2052
 29254 OH2         16.1040   -29.9660   -52.4540 O.3    3448  TIP3298    -0.4105
 29255 H1          16.4850   -30.3590   -51.6680 H      3448  TIP3298     0.2052
 29256 H2          16.1060   -30.6710   -53.1000 H      3448  TIP3298     0.2052
 29257 OH2          6.1660    -4.2100    36.5430 O.3    3449  TIP3299    -0.4105
 29258 H1           5.3000    -4.4100    36.8980 H      3449  TIP3299     0.2052
 29259 H2           6.0550    -4.2650    35.5940 H      3449  TIP3299     0.2052
 29260 OH2         27.3750   -10.6470   -35.8190 O.3    3450  TIP3300    -0.4105
 29261 H1          27.9580   -10.5170   -36.5680 H      3450  TIP3300     0.2052
 29262 H2          26.5670   -10.9890   -36.2010 H      3450  TIP3300     0.2052
 29263 OH2        -32.5070   -13.9420    52.2890 O.3    3451  TIP3301    -0.4105
 29264 H1         -31.8720   -14.0380    52.9980 H      3451  TIP3301     0.2052
 29265 H2         -32.9990   -13.1520    52.5110 H      3451  TIP3301     0.2052
 29266 OH2         20.5830    17.4000    37.7330 O.3    3452  TIP3302    -0.4105
 29267 H1          21.2140    16.7070    37.9290 H      3452  TIP3302     0.2052
 29268 H2          20.8970    17.7850    36.9150 H      3452  TIP3302     0.2052
 29269 OH2        -25.3510     5.8460    27.7040 O.3    3453  TIP3303    -0.4105
 29270 H1         -26.1600     6.2630    27.9990 H      3453  TIP3303     0.2052
 29271 H2         -25.2060     5.1360    28.3290 H      3453  TIP3303     0.2052
 29272 OH2         -0.6780    26.5110    28.0300 O.3    3454  TIP3304    -0.4105
 29273 H1          -0.8640    27.3210    28.5040 H      3454  TIP3304     0.2052
 29274 H2          -1.2680    26.5330    27.2760 H      3454  TIP3304     0.2052
 29275 OH2        -30.0050    -4.4780   -55.5660 O.3    3455  TIP3305    -0.4105
 29276 H1         -30.2470    -4.9090   -54.7470 H      3455  TIP3305     0.2052
 29277 H2         -29.4060    -3.7800   -55.3020 H      3455  TIP3305     0.2052
 29278 OH2         16.2760   -21.3120   -51.2760 O.3    3456  TIP3306    -0.4105
 29279 H1          16.2530   -22.2540   -51.1110 H      3456  TIP3306     0.2052
 29280 H2          15.5650   -21.1600   -51.8980 H      3456  TIP3306     0.2052
 29281 OH2         -8.3810    -8.7630   -52.2980 O.3    3457  TIP3307    -0.4105
 29282 H1          -7.6100    -8.1970   -52.2460 H      3457  TIP3307     0.2052
 29283 H2          -8.0340    -9.6170   -52.5550 H      3457  TIP3307     0.2052
 29284 OH2          9.8840    -3.0340    21.8190 O.3    3458  TIP3308    -0.4105
 29285 H1           9.4190    -3.8250    22.0920 H      3458  TIP3308     0.2052
 29286 H2          10.7390    -3.3460    21.5260 H      3458  TIP3308     0.2052
 29287 OH2         11.4040    10.0300   -38.8900 O.3    3459  TIP3309    -0.4105
 29288 H1          12.3410    10.0890   -39.0760 H      3459  TIP3309     0.2052
 29289 H2          11.3160     9.2460   -38.3480 H      3459  TIP3309     0.2052
 29290 OH2         13.9050   -30.8070    40.0850 O.3    3460  TIP3310    -0.4105
 29291 H1          12.9850   -30.8640    40.3430 H      3460  TIP3310     0.2052
 29292 H2          14.1020   -29.8710    40.1010 H      3460  TIP3310     0.2052
 29293 OH2         21.0490    -9.7090   -47.8080 O.3    3461  TIP3311    -0.4105
 29294 H1          20.1250    -9.5970   -48.0290 H      3461  TIP3311     0.2052
 29295 H2          21.0650   -10.4600   -47.2140 H      3461  TIP3311     0.2052
 29296 OH2          0.4750    -7.1400    31.7200 O.3    3462  TIP3312    -0.4105
 29297 H1           1.1420    -7.4440    31.1040 H      3462  TIP3312     0.2052
 29298 H2          -0.3360    -7.5460    31.4150 H      3462  TIP3312     0.2052
 29299 OH2         16.8440   -29.1090    38.0460 O.3    3463  TIP3313    -0.4105
 29300 H1          16.1920   -28.9650    38.7320 H      3463  TIP3313     0.2052
 29301 H2          17.1910   -28.2370    37.8580 H      3463  TIP3313     0.2052
 29302 OH2        -23.6130   -29.0080    18.4810 O.3    3464  TIP3314    -0.4105
 29303 H1         -24.3120   -28.8180    17.8550 H      3464  TIP3314     0.2052
 29304 H2         -23.3880   -29.9240    18.3190 H      3464  TIP3314     0.2052
 29305 OH2         29.3060   -30.5930    42.8890 O.3    3465  TIP3315    -0.4105
 29306 H1          28.6730   -31.3060    42.9720 H      3465  TIP3315     0.2052
 29307 H2          28.8030   -29.8690    42.5160 H      3465  TIP3315     0.2052
 29308 OH2         17.6130    -5.4390    37.4790 O.3    3466  TIP3316    -0.4105
 29309 H1          16.9110    -4.9010    37.1120 H      3466  TIP3316     0.2052
 29310 H2          18.3210    -4.8200    37.6560 H      3466  TIP3316     0.2052
 29311 OH2          8.6430    -2.1630    53.6990 O.3    3467  TIP3317    -0.4105
 29312 H1           7.7350    -2.3070    53.4310 H      3467  TIP3317     0.2052
 29313 H2           8.5850    -1.9250    54.6240 H      3467  TIP3317     0.2052
 29314 OH2         20.3250   -30.5890    53.3710 O.3    3468  TIP3318    -0.4105
 29315 H1          20.2470   -29.8890    54.0190 H      3468  TIP3318     0.2052
 29316 H2          19.4220   -30.7960    53.1310 H      3468  TIP3318     0.2052
 29317 OH2         11.3830    20.9200   -23.1970 O.3    3469  TIP3319    -0.4105
 29318 H1          10.4510    21.1360   -23.1510 H      3469  TIP3319     0.2052
 29319 H2          11.8300    21.7500   -23.0340 H      3469  TIP3319     0.2052
 29320 OH2        -16.1590     6.7280    47.4960 O.3    3470  TIP3320    -0.4105
 29321 H1         -16.7990     6.6240    48.2010 H      3470  TIP3320     0.2052
 29322 H2         -16.1540     5.8810    47.0500 H      3470  TIP3320     0.2052
 29323 OH2         -3.2930     3.6750   -53.5650 O.3    3471  TIP3321    -0.4105
 29324 H1          -2.3980     3.3490   -53.4640 H      3471  TIP3321     0.2052
 29325 H2          -3.7870     3.2400   -52.8700 H      3471  TIP3321     0.2052
 29326 OH2         25.7040   -21.0240    32.6840 O.3    3472  TIP3322    -0.4105
 29327 H1          26.2410   -20.2520    32.5060 H      3472  TIP3322     0.2052
 29328 H2          26.1650   -21.7420    32.2510 H      3472  TIP3322     0.2052
 29329 OH2        -25.6380    25.1540    16.1400 O.3    3473  TIP3323    -0.4105
 29330 H1         -24.8550    24.6350    15.9610 H      3473  TIP3323     0.2052
 29331 H2         -25.6290    25.8400    15.4720 H      3473  TIP3323     0.2052
 29332 OH2        -25.5630    20.4130   -27.5920 O.3    3474  TIP3324    -0.4105
 29333 H1         -25.1610    21.1830   -27.1880 H      3474  TIP3324     0.2052
 29334 H2         -26.0270    19.9810   -26.8760 H      3474  TIP3324     0.2052
 29335 OH2         25.2830     8.9200    46.7380 O.3    3475  TIP3325    -0.4105
 29336 H1          24.5940     8.2620    46.6430 H      3475  TIP3325     0.2052
 29337 H2          26.0700     8.4940    46.3980 H      3475  TIP3325     0.2052
 29338 OH2         31.8970   -27.0210    26.6960 O.3    3476  TIP3326    -0.4105
 29339 H1          31.8260   -26.4360    25.9420 H      3476  TIP3326     0.2052
 29340 H2          31.3850   -26.5920    27.3820 H      3476  TIP3326     0.2052
 29341 OH2         -8.6140   -30.7400   -49.2320 O.3    3477  TIP3327    -0.4105
 29342 H1          -8.9390   -31.1290   -48.4200 H      3477  TIP3327     0.2052
 29343 H2          -8.9260   -29.8360   -49.2070 H      3477  TIP3327     0.2052
 29344 OH2          6.9370     6.4150   -35.9650 O.3    3478  TIP3328    -0.4105
 29345 H1           6.0870     6.7390   -35.6680 H      3478  TIP3328     0.2052
 29346 H2           6.8010     5.4780   -36.1050 H      3478  TIP3328     0.2052
 29347 OH2        -12.7750     8.3070   -27.5630 O.3    3479  TIP3329    -0.4105
 29348 H1         -11.8280     8.3130   -27.4270 H      3479  TIP3329     0.2052
 29349 H2         -12.9740     9.1800   -27.9000 H      3479  TIP3329     0.2052
 29350 OH2        -29.7640   -13.7420   -24.4880 O.3    3480  TIP3330    -0.4105
 29351 H1         -30.5370   -13.9770   -23.9740 H      3480  TIP3330     0.2052
 29352 H2         -29.4390   -14.5760   -24.8280 H      3480  TIP3330     0.2052
 29353 OH2          1.7450   -29.3980   -43.1480 O.3    3481  TIP3331    -0.4105
 29354 H1           2.3980   -29.6770   -42.5060 H      3481  TIP3331     0.2052
 29355 H2           1.4610   -28.5370   -42.8430 H      3481  TIP3331     0.2052
 29356 OH2        -30.3230    12.7330    30.0380 O.3    3482  TIP3332    -0.4105
 29357 H1         -30.4040    11.9220    29.5370 H      3482  TIP3332     0.2052
 29358 H2         -29.5390    12.6070    30.5740 H      3482  TIP3332     0.2052
 29359 OH2         25.2100    -0.3790   -55.3000 O.3    3483  TIP3333    -0.4105
 29360 H1          25.8190    -0.2710   -54.5690 H      3483  TIP3333     0.2052
 29361 H2          24.3890     0.0010   -54.9870 H      3483  TIP3333     0.2052
 29362 OH2        -31.8770   -12.1520    22.9610 O.3    3484  TIP3334    -0.4105
 29363 H1         -32.3450   -11.3510    23.1950 H      3484  TIP3334     0.2052
 29364 H2         -32.4680   -12.6090    22.3620 H      3484  TIP3334     0.2052
 29365 OH2         30.2700    -7.4610   -25.5030 O.3    3485  TIP3335    -0.4105
 29366 H1          31.1580    -7.1320   -25.6410 H      3485  TIP3335     0.2052
 29367 H2          29.7520    -6.6790   -25.3100 H      3485  TIP3335     0.2052
 29368 OH2         23.1450    -3.0520   -47.8520 O.3    3486  TIP3336    -0.4105
 29369 H1          24.0950    -3.0400   -47.7390 H      3486  TIP3336     0.2052
 29370 H2          22.9010    -3.9700   -47.7300 H      3486  TIP3336     0.2052
 29371 OH2         14.2820    -7.4400   -43.7370 O.3    3487  TIP3337    -0.4105
 29372 H1          14.8330    -7.7900   -43.0360 H      3487  TIP3337     0.2052
 29373 H2          14.6650    -7.7910   -44.5410 H      3487  TIP3337     0.2052
 29374 OH2        -16.8320   -21.1840   -30.4410 O.3    3488  TIP3338    -0.4105
 29375 H1         -16.6830   -21.1390   -29.4960 H      3488  TIP3338     0.2052
 29376 H2         -16.2320   -20.5360   -30.8100 H      3488  TIP3338     0.2052
 29377 OH2         -3.5930    16.8700    53.5020 O.3    3489  TIP3339    -0.4105
 29378 H1          -2.7540    16.5470    53.1720 H      3489  TIP3339     0.2052
 29379 H2          -3.7170    17.7100    53.0610 H      3489  TIP3339     0.2052
 29380 OH2        -17.6480   -13.1010    54.3360 O.3    3490  TIP3340    -0.4105
 29381 H1         -18.5750   -13.3240    54.2540 H      3490  TIP3340     0.2052
 29382 H2         -17.5370   -12.3270    53.7840 H      3490  TIP3340     0.2052
 29383 OH2         10.4950     6.3870    28.3800 O.3    3491  TIP3341    -0.4105
 29384 H1          11.3910     6.1040    28.5620 H      3491  TIP3341     0.2052
 29385 H2          10.3060     6.0400    27.5080 H      3491  TIP3341     0.2052
 29386 OH2        -27.9840    28.2390   -39.5220 O.3    3492  TIP3342    -0.4105
 29387 H1         -27.5720    28.9980   -39.9340 H      3492  TIP3342     0.2052
 29388 H2         -27.3220    27.5500   -39.5720 H      3492  TIP3342     0.2052
 29389 OH2         16.1340    -2.5510   -31.7850 O.3    3493  TIP3343    -0.4105
 29390 H1          17.0160    -2.4800   -32.1500 H      3493  TIP3343     0.2052
 29391 H2          16.1080    -3.4220   -31.3890 H      3493  TIP3343     0.2052
 29392 OH2         15.9490     4.3880    40.3660 O.3    3494  TIP3344    -0.4105
 29393 H1          15.6640     5.2590    40.6420 H      3494  TIP3344     0.2052
 29394 H2          16.0510     3.8990    41.1830 H      3494  TIP3344     0.2052
 29395 OH2        -24.1810     1.3400    27.2950 O.3    3495  TIP3345    -0.4105
 29396 H1         -23.7620     2.0750    27.7420 H      3495  TIP3345     0.2052
 29397 H2         -25.1150     1.5480    27.3160 H      3495  TIP3345     0.2052
 29398 OH2         -7.5380    -3.9880    51.3240 O.3    3496  TIP3346    -0.4105
 29399 H1          -7.2330    -3.5500    50.5290 H      3496  TIP3346     0.2052
 29400 H2          -7.3570    -4.9160    51.1710 H      3496  TIP3346     0.2052
 29401 OH2         -0.7800    18.6790    22.9520 O.3    3497  TIP3347    -0.4105
 29402 H1          -0.8750    18.0190    22.2650 H      3497  TIP3347     0.2052
 29403 H2           0.0160    19.1560    22.7170 H      3497  TIP3347     0.2052
 29404 OH2        -10.9460     3.3910   -26.0260 O.3    3498  TIP3348    -0.4105
 29405 H1         -10.6200     4.2900   -26.0400 H      3498  TIP3348     0.2052
 29406 H2         -11.8700     3.4740   -25.7880 H      3498  TIP3348     0.2052
 29407 OH2          9.1910   -31.1380   -24.4280 O.3    3499  TIP3349    -0.4105
 29408 H1           8.3420   -31.0010   -24.0080 H      3499  TIP3349     0.2052
 29409 H2           9.5990   -30.2730   -24.4310 H      3499  TIP3349     0.2052
 29410 OH2        -25.8700   -22.8870    36.1280 O.3    3500  TIP3350    -0.4105
 29411 H1         -25.1060   -22.3960    35.8270 H      3500  TIP3350     0.2052
 29412 H2         -26.2580   -23.2420    35.3280 H      3500  TIP3350     0.2052
 29413 OH2        -11.2000    13.6880   -43.7430 O.3    3501  TIP3351    -0.4105
 29414 H1         -11.9390    13.6640   -43.1350 H      3501  TIP3351     0.2052
 29415 H2         -11.1640    12.8060   -44.1120 H      3501  TIP3351     0.2052
 29416 OH2        -30.5440    -5.9110    50.7740 O.3    3502  TIP3352    -0.4105
 29417 H1         -30.8670    -5.4550    51.5510 H      3502  TIP3352     0.2052
 29418 H2         -30.4230    -5.2190    50.1230 H      3502  TIP3352     0.2052
 29419 OH2         31.3820    28.3230    39.2950 O.3    3503  TIP3353    -0.4105
 29420 H1          30.5910    28.2340    38.7640 H      3503  TIP3353     0.2052
 29421 H2          31.5130    27.4540    39.6760 H      3503  TIP3353     0.2052
 29422 OH2        -22.3400    -5.3000    45.7560 O.3    3504  TIP3354    -0.4105
 29423 H1         -21.8880    -5.9640    45.2350 H      3504  TIP3354     0.2052
 29424 H2         -22.0880    -4.4680    45.3550 H      3504  TIP3354     0.2052
 29425 OH2        -11.4480    24.7360   -33.7420 O.3    3505  TIP3355    -0.4105
 29426 H1         -11.1270    24.2400   -34.4950 H      3505  TIP3355     0.2052
 29427 H2         -10.6900    24.8080   -33.1610 H      3505  TIP3355     0.2052
 29428 OH2        -30.6430    10.4630    40.1930 O.3    3506  TIP3356    -0.4105
 29429 H1         -31.0210    11.1770    40.7060 H      3506  TIP3356     0.2052
 29430 H2         -30.6730     9.7060    40.7780 H      3506  TIP3356     0.2052
 29431 OH2         -5.7210   -12.3960   -30.5170 O.3    3507  TIP3357    -0.4105
 29432 H1          -6.3190   -11.6910   -30.2710 H      3507  TIP3357     0.2052
 29433 H2          -5.8850   -12.5350   -31.4500 H      3507  TIP3357     0.2052
 29434 OH2         -5.7200   -13.5440   -45.4920 O.3    3508  TIP3358    -0.4105
 29435 H1          -5.7080   -13.0440   -46.3080 H      3508  TIP3358     0.2052
 29436 H2          -5.8780   -14.4470   -45.7650 H      3508  TIP3358     0.2052
 29437 OH2         31.7920    14.4860   -32.6330 O.3    3509  TIP3359    -0.4105
 29438 H1          31.6430    15.2630   -32.0930 H      3509  TIP3359     0.2052
 29439 H2          31.6710    14.7910   -33.5320 H      3509  TIP3359     0.2052
 29440 OH2         10.8300    17.6490    24.7050 O.3    3510  TIP3360    -0.4105
 29441 H1          10.7060    17.4130    23.7850 H      3510  TIP3360     0.2052
 29442 H2          10.3580    18.4750    24.8060 H      3510  TIP3360     0.2052
 29443 OH2          5.3670   -12.5160   -44.2950 O.3    3511  TIP3361    -0.4105
 29444 H1           6.1740   -12.8000   -44.7260 H      3511  TIP3361     0.2052
 29445 H2           4.8570   -13.3190   -44.1890 H      3511  TIP3361     0.2052
 29446 OH2         16.6660    11.3410    37.5450 O.3    3512  TIP3362    -0.4105
 29447 H1          15.9070    11.5940    37.0200 H      3512  TIP3362     0.2052
 29448 H2          16.6390    10.3840    37.5610 H      3512  TIP3362     0.2052
 29449 OH2         20.5420    14.8940    34.4700 O.3    3513  TIP3363    -0.4105
 29450 H1          20.1410    15.7220    34.7340 H      3513  TIP3363     0.2052
 29451 H2          19.8060    14.2880    34.3820 H      3513  TIP3363     0.2052
 29452 OH2         15.9300    18.7500   -43.9890 O.3    3514  TIP3364    -0.4105
 29453 H1          16.5610    18.0360   -43.9020 H      3514  TIP3364     0.2052
 29454 H2          15.3500    18.6510   -43.2340 H      3514  TIP3364     0.2052
 29455 OH2         -2.1480    27.8450   -42.5920 O.3    3515  TIP3365    -0.4105
 29456 H1          -1.2400    27.8080   -42.8930 H      3515  TIP3365     0.2052
 29457 H2          -2.6170    28.2860   -43.3000 H      3515  TIP3365     0.2052
 29458 OH2          6.7740     1.0160   -46.8060 O.3    3516  TIP3366    -0.4105
 29459 H1           7.5750     0.9620   -47.3270 H      3516  TIP3366     0.2052
 29460 H2           7.0690     1.2970   -45.9400 H      3516  TIP3366     0.2052
 29461 OH2         11.3730   -30.9060    34.6820 O.3    3517  TIP3367    -0.4105
 29462 H1          10.4640   -30.7930    34.4030 H      3517  TIP3367     0.2052
 29463 H2          11.8190   -30.1180    34.3710 H      3517  TIP3367     0.2052
 29464 OH2        -19.3660    13.3620   -20.4040 O.3    3518  TIP3368    -0.4105
 29465 H1         -19.7640    13.9920   -19.8040 H      3518  TIP3368     0.2052
 29466 H2         -18.8840    13.9010   -21.0320 H      3518  TIP3368     0.2052
 29467 OH2          3.8800    -6.4260    34.1310 O.3    3519  TIP3369    -0.4105
 29468 H1           3.3640    -6.6500    34.9060 H      3519  TIP3369     0.2052
 29469 H2           4.7900    -6.5440    34.4060 H      3519  TIP3369     0.2052
 29470 OH2        -13.6820    28.3150    41.8830 O.3    3520  TIP3370    -0.4105
 29471 H1         -14.3070    28.7910    41.3370 H      3520  TIP3370     0.2052
 29472 H2         -14.1180    28.2300    42.7300 H      3520  TIP3370     0.2052
 29473 OH2         -0.7580     9.8900   -25.9510 O.3    3521  TIP3371    -0.4105
 29474 H1          -0.3140     9.3550   -26.6080 H      3521  TIP3371     0.2052
 29475 H2          -1.6350     9.5120   -25.8860 H      3521  TIP3371     0.2052
 29476 OH2          5.1580   -20.5450   -48.4450 O.3    3522  TIP3372    -0.4105
 29477 H1           5.1210   -19.8910   -47.7480 H      3522  TIP3372     0.2052
 29478 H2           5.9770   -21.0150   -48.2900 H      3522  TIP3372     0.2052
 29479 OH2          4.2980     3.1640    46.9610 O.3    3523  TIP3373    -0.4105
 29480 H1           4.8840     3.8960    46.7700 H      3523  TIP3373     0.2052
 29481 H2           4.2280     2.6900    46.1320 H      3523  TIP3373     0.2052
 29482 OH2         -9.6930    -0.3480    53.8040 O.3    3524  TIP3374    -0.4105
 29483 H1          -9.8060     0.0260    52.9300 H      3524  TIP3374     0.2052
 29484 H2         -10.4120     0.0190    54.3180 H      3524  TIP3374     0.2052
 29485 OH2        -23.4150   -28.9930   -38.1230 O.3    3525  TIP3375    -0.4105
 29486 H1         -23.9410   -29.4880   -37.4950 H      3525  TIP3375     0.2052
 29487 H2         -22.9100   -29.6580   -38.5900 H      3525  TIP3375     0.2052
 29488 OH2         32.7190   -12.0770    45.2970 O.3    3526  TIP3376    -0.4105
 29489 H1          33.2480   -12.7640    45.7040 H      3526  TIP3376     0.2052
 29490 H2          31.9710   -12.5410    44.9210 H      3526  TIP3376     0.2052
 29491 OH2         -5.6040    29.1320   -32.3910 O.3    3527  TIP3377    -0.4105
 29492 H1          -4.8530    29.5680   -32.7930 H      3527  TIP3377     0.2052
 29493 H2          -6.1100    29.8410   -31.9950 H      3527  TIP3377     0.2052
 29494 OH2        -15.2690    24.1660    54.2340 O.3    3528  TIP3378    -0.4105
 29495 H1         -15.3810    23.7900    53.3610 H      3528  TIP3378     0.2052
 29496 H2         -14.8240    23.4830    54.7350 H      3528  TIP3378     0.2052
 29497 OH2        -23.1470     7.1790    47.6120 O.3    3529  TIP3379    -0.4105
 29498 H1         -22.7470     6.7010    46.8850 H      3529  TIP3379     0.2052
 29499 H2         -22.8550     6.7120    48.3950 H      3529  TIP3379     0.2052
 29500 OH2         -4.8080     1.0670   -32.4040 O.3    3530  TIP3380    -0.4105
 29501 H1          -4.4340     0.3160   -32.8660 H      3530  TIP3380     0.2052
 29502 H2          -5.7260     0.8340   -32.2710 H      3530  TIP3380     0.2052
 29503 OH2         32.1270    29.4490   -41.3220 O.3    3531  TIP3381    -0.4105
 29504 H1          32.6120    29.0900   -40.5790 H      3531  TIP3381     0.2052
 29505 H2          32.3400    28.8660   -42.0510 H      3531  TIP3381     0.2052
 29506 OH2        -23.4070   -28.3840   -51.0780 O.3    3532  TIP3382    -0.4105
 29507 H1         -22.6140   -27.9590   -50.7490 H      3532  TIP3382     0.2052
 29508 H2         -23.4750   -29.1910   -50.5690 H      3532  TIP3382     0.2052
 29509 OH2         15.4200    16.6680    42.2670 O.3    3533  TIP3383    -0.4105
 29510 H1          14.5340    16.7560    41.9130 H      3533  TIP3383     0.2052
 29511 H2          15.9860    17.0370    41.5900 H      3533  TIP3383     0.2052
 29512 OH2          2.6760    22.3460   -40.4540 O.3    3534  TIP3384    -0.4105
 29513 H1           2.1720    23.0130   -40.9210 H      3534  TIP3384     0.2052
 29514 H2           2.1560    22.1560   -39.6740 H      3534  TIP3384     0.2052
 29515 OH2        -11.6580   -13.8660    45.4950 O.3    3535  TIP3385    -0.4105
 29516 H1         -12.1550   -13.1260    45.1470 H      3535  TIP3385     0.2052
 29517 H2         -12.1390   -14.1310    46.2790 H      3535  TIP3385     0.2052
 29518 OH2        -20.6790   -30.4820   -28.4980 O.3    3536  TIP3386    -0.4105
 29519 H1         -20.2080   -29.8030   -28.9820 H      3536  TIP3386     0.2052
 29520 H2         -20.1010   -30.7020   -27.7680 H      3536  TIP3386     0.2052
 29521 OH2         -9.5590    -1.8700   -51.5490 O.3    3537  TIP3387    -0.4105
 29522 H1         -10.3440    -2.3810   -51.3560 H      3537  TIP3387     0.2052
 29523 H2          -9.8710    -1.1460   -52.0930 H      3537  TIP3387     0.2052
 29524 OH2        -16.8840    -9.0540   -47.8710 O.3    3538  TIP3388    -0.4105
 29525 H1         -16.7520    -8.9100   -48.8080 H      3538  TIP3388     0.2052
 29526 H2         -17.5020    -8.3720   -47.6080 H      3538  TIP3388     0.2052
 29527 OH2         18.7430    -9.0760   -53.3810 O.3    3539  TIP3389    -0.4105
 29528 H1          18.9040    -8.9310   -54.3140 H      3539  TIP3389     0.2052
 29529 H2          17.9390    -9.5940   -53.3550 H      3539  TIP3389     0.2052
 29530 OH2        -31.8600   -10.7190   -40.7880 O.3    3540  TIP3390    -0.4105
 29531 H1         -31.7900    -9.8370   -40.4210 H      3540  TIP3390     0.2052
 29532 H2         -32.7770   -10.7960   -41.0510 H      3540  TIP3390     0.2052
 29533 OH2         16.6820    22.6490   -37.4270 O.3    3541  TIP3391    -0.4105
 29534 H1          16.6940    21.7980   -36.9900 H      3541  TIP3391     0.2052
 29535 H2          17.2730    22.5440   -38.1730 H      3541  TIP3391     0.2052
 29536 OH2         21.0240    16.7250    48.5740 O.3    3542  TIP3392    -0.4105
 29537 H1          20.5450    15.9560    48.8840 H      3542  TIP3392     0.2052
 29538 H2          20.3440    17.3660    48.3710 H      3542  TIP3392     0.2052
 29539 OH2        -26.3410    25.6440    35.9450 O.3    3543  TIP3393    -0.4105
 29540 H1         -26.6130    25.8640    35.0540 H      3543  TIP3393     0.2052
 29541 H2         -25.6150    25.0320    35.8310 H      3543  TIP3393     0.2052
 29542 OH2          5.4650   -10.6850    44.1820 O.3    3544  TIP3394    -0.4105
 29543 H1           4.9620   -11.4860    44.3320 H      3544  TIP3394     0.2052
 29544 H2           5.0030   -10.0140    44.6860 H      3544  TIP3394     0.2052
 29545 OH2         11.5700    13.9340   -49.7210 O.3    3545  TIP3395    -0.4105
 29546 H1          11.0520    14.3690   -49.0440 H      3545  TIP3395     0.2052
 29547 H2          11.4270    12.9990   -49.5690 H      3545  TIP3395     0.2052
 29548 OH2         15.2750   -18.7950    27.8520 O.3    3546  TIP3396    -0.4105
 29549 H1          14.6040   -19.2550    28.3570 H      3546  TIP3396     0.2052
 29550 H2          15.0650   -18.9930    26.9390 H      3546  TIP3396     0.2052
 29551 OH2         10.8600   -12.3920   -38.0600 O.3    3547  TIP3397    -0.4105
 29552 H1           9.9190   -12.2530   -38.1730 H      3547  TIP3397     0.2052
 29553 H2          10.9270   -13.2540   -37.6510 H      3547  TIP3397     0.2052
 29554 OH2         23.4290   -10.4340    30.3640 O.3    3548  TIP3398    -0.4105
 29555 H1          23.6790   -10.2490    31.2690 H      3548  TIP3398     0.2052
 29556 H2          23.9290   -11.2170    30.1320 H      3548  TIP3398     0.2052
 29557 OH2          0.8220    -6.4420    23.0600 O.3    3549  TIP3399    -0.4105
 29558 H1           1.0550    -5.6650    23.5700 H      3549  TIP3399     0.2052
 29559 H2           0.0570    -6.8020    23.5090 H      3549  TIP3399     0.2052
 29560 OH2         -6.3300   -21.0310    22.1390 O.3    3550  TIP3400    -0.4105
 29561 H1          -5.4890   -20.5790    22.0720 H      3550  TIP3400     0.2052
 29562 H2          -6.4050   -21.5210    21.3200 H      3550  TIP3400     0.2052
 29563 OH2         30.2500    17.7160    45.5540 O.3    3551  TIP3401    -0.4105
 29564 H1          30.9710    17.0870    45.5950 H      3551  TIP3401     0.2052
 29565 H2          30.5000    18.4070    46.1670 H      3551  TIP3401     0.2052
 29566 OH2        -24.9330    13.0720   -21.9280 O.3    3552  TIP3402    -0.4105
 29567 H1         -25.0160    13.7440   -21.2520 H      3552  TIP3402     0.2052
 29568 H2         -25.8330    12.8930   -22.2000 H      3552  TIP3402     0.2052
 29569 OH2         21.0620    -5.7600   -23.8400 O.3    3553  TIP3403    -0.4105
 29570 H1          20.4270    -5.1800   -23.4190 H      3553  TIP3403     0.2052
 29571 H2          21.6190    -5.1740   -24.3530 H      3553  TIP3403     0.2052
 29572 OH2         24.7960    22.2730   -47.5130 O.3    3554  TIP3404    -0.4105
 29573 H1          25.6980    22.1640   -47.8160 H      3554  TIP3404     0.2052
 29574 H2          24.4010    22.8710   -48.1480 H      3554  TIP3404     0.2052
 29575 OH2         25.3550   -31.1510   -49.0540 O.3    3555  TIP3405    -0.4105
 29576 H1          25.9780   -31.1560   -48.3270 H      3555  TIP3405     0.2052
 29577 H2          24.7990   -31.9140   -48.9000 H      3555  TIP3405     0.2052
 29578 OH2        -16.0080    10.7150   -29.5440 O.3    3556  TIP3406    -0.4105
 29579 H1         -16.1990     9.7810   -29.6350 H      3556  TIP3406     0.2052
 29580 H2         -16.6080    11.0180   -28.8630 H      3556  TIP3406     0.2052
 29581 OH2        -29.8420   -11.1120    17.8060 O.3    3557  TIP3407    -0.4105
 29582 H1         -29.9950   -12.0310    17.5840 H      3557  TIP3407     0.2052
 29583 H2         -30.6540   -10.6680    17.5610 H      3557  TIP3407     0.2052
 29584 OH2         14.0080    -4.1390   -47.5050 O.3    3558  TIP3408    -0.4105
 29585 H1          13.0580    -4.0390   -47.4420 H      3558  TIP3408     0.2052
 29586 H2          14.2780    -4.4190   -46.6310 H      3558  TIP3408     0.2052
 29587 OH2        -21.5100     0.5670   -37.5760 O.3    3559  TIP3409    -0.4105
 29588 H1         -21.6800    -0.0770   -38.2630 H      3559  TIP3409     0.2052
 29589 H2         -20.5700     0.7400   -37.6370 H      3559  TIP3409     0.2052
 29590 OH2        -11.7390   -11.0370    51.6860 O.3    3560  TIP3410    -0.4105
 29591 H1         -10.9050   -11.4540    51.9010 H      3560  TIP3410     0.2052
 29592 H2         -12.4000   -11.6030    52.0850 H      3560  TIP3410     0.2052
 29593 OH2        -24.9480    33.0340    41.3850 O.3    3561  TIP3411    -0.4105
 29594 H1         -24.0330    33.0980    41.6580 H      3561  TIP3411     0.2052
 29595 H2         -24.9070    32.7700    40.4660 H      3561  TIP3411     0.2052
 29596 OH2          6.0580    23.2440   -42.7540 O.3    3562  TIP3412    -0.4105
 29597 H1           5.5360    23.9420   -42.3580 H      3562  TIP3412     0.2052
 29598 H2           6.7320    23.7020   -43.2550 H      3562  TIP3412     0.2052
 29599 OH2        -30.7050    32.0340    52.6200 O.3    3563  TIP3413    -0.4105
 29600 H1         -31.4580    32.0200    52.0300 H      3563  TIP3413     0.2052
 29601 H2         -30.7360    32.9000    53.0280 H      3563  TIP3413     0.2052
 29602 OH2        -21.2360     5.8160   -33.0670 O.3    3564  TIP3414    -0.4105
 29603 H1         -20.6820     6.4780   -33.4810 H      3564  TIP3414     0.2052
 29604 H2         -20.7340     5.0040   -33.1400 H      3564  TIP3414     0.2052
 29605 OH2         14.9360   -20.8940    30.5610 O.3    3565  TIP3415    -0.4105
 29606 H1          15.7380   -20.8130    30.0450 H      3565  TIP3415     0.2052
 29607 H2          14.2570   -20.5000    30.0130 H      3565  TIP3415     0.2052
 29608 OH2          8.2700   -21.3180    52.6550 O.3    3566  TIP3416    -0.4105
 29609 H1           8.7280   -21.2880    51.8150 H      3566  TIP3416     0.2052
 29610 H2           8.6380   -20.5890    53.1550 H      3566  TIP3416     0.2052
 29611 OH2         12.6310   -27.4410    38.8170 O.3    3567  TIP3417    -0.4105
 29612 H1          12.4960   -28.3160    38.4530 H      3567  TIP3417     0.2052
 29613 H2          12.5890   -26.8580    38.0590 H      3567  TIP3417     0.2052
 29614 OH2          1.1580    22.1360    41.2240 O.3    3568  TIP3418    -0.4105
 29615 H1           1.2760    21.1930    41.3320 H      3568  TIP3418     0.2052
 29616 H2           1.7500    22.5270    41.8670 H      3568  TIP3418     0.2052
 29617 OH2        -10.0090   -27.1450   -30.0490 O.3    3569  TIP3419    -0.4105
 29618 H1         -10.9090   -27.0190   -29.7470 H      3569  TIP3419     0.2052
 29619 H2          -9.6400   -26.2620   -30.0770 H      3569  TIP3419     0.2052
 29620 OH2         14.9450   -23.3860    31.8460 O.3    3570  TIP3420    -0.4105
 29621 H1          14.5420   -22.8690    32.5440 H      3570  TIP3420     0.2052
 29622 H2          15.1570   -22.7460    31.1660 H      3570  TIP3420     0.2052
 29623 OH2        -22.2470    -7.2040   -34.1030 O.3    3571  TIP3421    -0.4105
 29624 H1         -22.2440    -6.5290   -34.7820 H      3571  TIP3421     0.2052
 29625 H2         -21.5120    -6.9760   -33.5330 H      3571  TIP3421     0.2052
 29626 OH2         17.7140    -7.7470   -16.9030 O.3    3572  TIP3422    -0.4105
 29627 H1          16.9260    -8.2630   -17.0760 H      3572  TIP3422     0.2052
 29628 H2          18.1930    -8.2530   -16.2470 H      3572  TIP3422     0.2052
 29629 OH2         14.7440   -24.3120    49.4420 O.3    3573  TIP3423    -0.4105
 29630 H1          15.2630   -23.5920    49.0840 H      3573  TIP3423     0.2052
 29631 H2          15.1400   -25.1010    49.0700 H      3573  TIP3423     0.2052
 29632 OH2        -17.8650   -25.0230   -19.5320 O.3    3574  TIP3424    -0.4105
 29633 H1         -18.5530   -25.5920   -19.1890 H      3574  TIP3424     0.2052
 29634 H2         -18.3180   -24.4340   -20.1360 H      3574  TIP3424     0.2052
 29635 OH2         -1.3960   -29.2810    26.5180 O.3    3575  TIP3425    -0.4105
 29636 H1          -1.6130   -28.3820    26.2710 H      3575  TIP3425     0.2052
 29637 H2          -0.4680   -29.3720    26.3020 H      3575  TIP3425     0.2052
 29638 OH2         27.1310    17.1420    53.2710 O.3    3576  TIP3426    -0.4105
 29639 H1          26.3950    17.7220    53.4630 H      3576  TIP3426     0.2052
 29640 H2          27.9050    17.6450    53.5240 H      3576  TIP3426     0.2052
 29641 OH2          4.8150    33.0430   -55.2040 O.3    3577  TIP3427    -0.4105
 29642 H1           4.5330    33.5570   -55.9600 H      3577  TIP3427     0.2052
 29643 H2           5.0690    33.6960   -54.5510 H      3577  TIP3427     0.2052
 29644 OH2         -0.5720    -4.3050    42.7810 O.3    3578  TIP3428    -0.4105
 29645 H1           0.2080    -4.3480    43.3340 H      3578  TIP3428     0.2052
 29646 H2          -1.2590    -3.9750    43.3600 H      3578  TIP3428     0.2052
 29647 OH2         12.1010   -11.0040   -51.5520 O.3    3579  TIP3429    -0.4105
 29648 H1          11.9470   -11.7340   -52.1530 H      3579  TIP3429     0.2052
 29649 H2          11.3950   -11.0700   -50.9090 H      3579  TIP3429     0.2052
 29650 OH2        -15.7720   -16.6670   -54.8540 O.3    3580  TIP3430    -0.4105
 29651 H1         -15.4950   -17.4640   -55.3060 H      3580  TIP3430     0.2052
 29652 H2         -16.6380   -16.4760   -55.2140 H      3580  TIP3430     0.2052
 29653 OH2         19.0230    10.9350   -22.6050 O.3    3581  TIP3431    -0.4105
 29654 H1          19.6400    11.5650   -22.2340 H      3581  TIP3431     0.2052
 29655 H2          18.7730    10.3800   -21.8660 H      3581  TIP3431     0.2052
 29656 OH2        -10.4620    -3.1670    29.1380 O.3    3582  TIP3432    -0.4105
 29657 H1         -10.6670    -3.2420    28.2060 H      3582  TIP3432     0.2052
 29658 H2         -10.8750    -2.3480    29.4100 H      3582  TIP3432     0.2052
 29659 OH2        -18.6470   -17.7220    45.0740 O.3    3583  TIP3433    -0.4105
 29660 H1         -18.3700   -18.5820    44.7590 H      3583  TIP3433     0.2052
 29661 H2         -19.2950   -17.4290    44.4330 H      3583  TIP3433     0.2052
 29662 OH2         -7.6970   -16.4150   -42.5640 O.3    3584  TIP3434    -0.4105
 29663 H1          -7.8260   -15.5050   -42.8310 H      3584  TIP3434     0.2052
 29664 H2          -7.8640   -16.4150   -41.6220 H      3584  TIP3434     0.2052
 29665 OH2        -12.9050   -30.3670   -54.7580 O.3    3585  TIP3435    -0.4105
 29666 H1         -12.9730   -29.5830   -54.2130 H      3585  TIP3435     0.2052
 29667 H2         -13.7990   -30.5270   -55.0600 H      3585  TIP3435     0.2052
 29668 OH2         13.1380   -23.0310    28.9320 O.3    3586  TIP3436    -0.4105
 29669 H1          12.6340   -23.4670    28.2450 H      3586  TIP3436     0.2052
 29670 H2          14.0270   -23.3720    28.8310 H      3586  TIP3436     0.2052
 29671 OH2          4.0700   -15.0470    30.4420 O.3    3587  TIP3437    -0.4105
 29672 H1           4.9730   -14.7530    30.5610 H      3587  TIP3437     0.2052
 29673 H2           4.0160   -15.2900    29.5180 H      3587  TIP3437     0.2052
 29674 OH2        -20.1700     3.2420   -37.7780 O.3    3588  TIP3438    -0.4105
 29675 H1         -20.7800     3.8260   -37.3280 H      3588  TIP3438     0.2052
 29676 H2         -20.7280     2.6830   -38.3190 H      3588  TIP3438     0.2052
 29677 OH2         -9.5940    24.0270    35.2310 O.3    3589  TIP3439    -0.4105
 29678 H1          -8.8530    23.4700    35.4700 H      3589  TIP3439     0.2052
 29679 H2          -9.6300    23.9820    34.2760 H      3589  TIP3439     0.2052
 29680 OH2         -6.9660   -25.6620    54.8810 O.3    3590  TIP3440    -0.4105
 29681 H1          -6.9390   -24.8710    54.3420 H      3590  TIP3440     0.2052
 29682 H2          -7.2680   -26.3470    54.2850 H      3590  TIP3440     0.2052
 29683 OH2         -9.6180   -13.8630   -38.2640 O.3    3591  TIP3441    -0.4105
 29684 H1          -9.1930   -13.0050   -38.2920 H      3591  TIP3441     0.2052
 29685 H2          -9.6680   -14.0760   -37.3330 H      3591  TIP3441     0.2052
 29686 OH2         21.4910   -31.8900   -29.8460 O.3    3592  TIP3442    -0.4105
 29687 H1          21.5040   -31.2680   -29.1190 H      3592  TIP3442     0.2052
 29688 H2          21.6320   -31.3520   -30.6250 H      3592  TIP3442     0.2052
 29689 OH2         13.3770    -6.3270   -30.1250 O.3    3593  TIP3443    -0.4105
 29690 H1          12.5870    -5.7910   -30.0650 H      3593  TIP3443     0.2052
 29691 H2          13.7230    -6.3470   -29.2330 H      3593  TIP3443     0.2052
 29692 OH2         12.8530     5.4520    29.3700 O.3    3594  TIP3444    -0.4105
 29693 H1          13.2010     4.7970    29.9750 H      3594  TIP3444     0.2052
 29694 H2          12.7610     4.9850    28.5390 H      3594  TIP3444     0.2052
 29695 OH2         27.4830   -17.5440   -41.2420 O.3    3595  TIP3445    -0.4105
 29696 H1          27.5990   -17.2250   -42.1370 H      3595  TIP3445     0.2052
 29697 H2          28.1750   -18.1960   -41.1290 H      3595  TIP3445     0.2052
 29698 OH2         10.8090    -8.0220    36.7650 O.3    3596  TIP3446    -0.4105
 29699 H1          11.0410    -7.0930    36.7590 H      3596  TIP3446     0.2052
 29700 H2          11.5290    -8.4470    37.2310 H      3596  TIP3446     0.2052
 29701 OH2         -5.8250    26.3000    52.9890 O.3    3597  TIP3447    -0.4105
 29702 H1          -5.8290    25.5270    53.5550 H      3597  TIP3447     0.2052
 29703 H2          -4.9280    26.3520    52.6600 H      3597  TIP3447     0.2052
 29704 OH2         29.6260    20.2640   -55.3230 O.3    3598  TIP3448    -0.4105
 29705 H1          29.2600    20.6330   -54.5200 H      3598  TIP3448     0.2052
 29706 H2          30.5320    20.0510   -55.0990 H      3598  TIP3448     0.2052
 29707 OH2         -3.1440   -17.6710   -41.9980 O.3    3599  TIP3449    -0.4105
 29708 H1          -3.5760   -17.6750   -41.1440 H      3599  TIP3449     0.2052
 29709 H2          -2.7460   -16.8020   -42.0610 H      3599  TIP3449     0.2052
 29710 OH2        -16.4510   -28.5130    46.2910 O.3    3600  TIP3450    -0.4105
 29711 H1         -15.9550   -28.7170    45.4980 H      3600  TIP3450     0.2052
 29712 H2         -17.3310   -28.3040    45.9770 H      3600  TIP3450     0.2052
 29713 OH2         13.2390     7.7120   -28.2360 O.3    3601  TIP3451    -0.4105
 29714 H1          13.0330     6.8590   -27.8530 H      3601  TIP3451     0.2052
 29715 H2          13.6830     7.5050   -29.0580 H      3601  TIP3451     0.2052
 29716 OH2        -16.1510    15.4910    35.2080 O.3    3602  TIP3452    -0.4105
 29717 H1         -16.9850    15.9070    34.9900 H      3602  TIP3452     0.2052
 29718 H2         -15.9400    15.8200    36.0810 H      3602  TIP3452     0.2052
 29719 OH2        -22.1090    27.9470    40.3330 O.3    3603  TIP3453    -0.4105
 29720 H1         -21.6510    28.7700    40.1640 H      3603  TIP3453     0.2052
 29721 H2         -22.4530    27.6840    39.4790 H      3603  TIP3453     0.2052
 29722 OH2          5.5540   -26.2930   -31.2740 O.3    3604  TIP3454    -0.4105
 29723 H1           5.3810   -27.0430   -31.8440 H      3604  TIP3454     0.2052
 29724 H2           6.2780   -25.8320   -31.6970 H      3604  TIP3454     0.2052
 29725 OH2        -15.4060     2.7340    41.1570 O.3    3605  TIP3455    -0.4105
 29726 H1         -15.0790     3.1750    41.9410 H      3605  TIP3455     0.2052
 29727 H2         -16.3560     2.8480    41.1970 H      3605  TIP3455     0.2052
 29728 OH2         26.3150     3.3290   -44.7960 O.3    3606  TIP3456    -0.4105
 29729 H1          27.1330     3.6450   -44.4120 H      3606  TIP3456     0.2052
 29730 H2          26.1530     2.4920   -44.3610 H      3606  TIP3456     0.2052
 29731 OH2        -28.5820   -31.9810    25.8220 O.3    3607  TIP3457    -0.4105
 29732 H1         -28.8040   -32.8870    26.0380 H      3607  TIP3457     0.2052
 29733 H2         -27.8890   -32.0540    25.1650 H      3607  TIP3457     0.2052
 29734 OH2        -12.9880   -22.3030    16.5370 O.3    3608  TIP3458    -0.4105
 29735 H1         -13.6430   -22.8670    16.9470 H      3608  TIP3458     0.2052
 29736 H2         -13.4730   -21.8200    15.8670 H      3608  TIP3458     0.2052
 29737 OH2         31.6910    26.1690   -33.5840 O.3    3609  TIP3459    -0.4105
 29738 H1          31.1490    26.9070   -33.3070 H      3609  TIP3459     0.2052
 29739 H2          31.7060    26.2270   -34.5400 H      3609  TIP3459     0.2052
 29740 OH2         -1.7840   -32.2490    52.2290 O.3    3610  TIP3460    -0.4105
 29741 H1          -0.8440   -32.3870    52.3480 H      3610  TIP3460     0.2052
 29742 H2          -2.1860   -32.6860    52.9800 H      3610  TIP3460     0.2052
 29743 OH2        -27.9860    28.7120   -31.0940 O.3    3611  TIP3461    -0.4105
 29744 H1         -28.1110    27.8150   -30.7840 H      3611  TIP3461     0.2052
 29745 H2         -28.7260    29.1980   -30.7300 H      3611  TIP3461     0.2052
 29746 OH2         23.9560   -27.0350   -39.6410 O.3    3612  TIP3462    -0.4105
 29747 H1          24.3290   -27.0510   -38.7600 H      3612  TIP3462     0.2052
 29748 H2          24.6540   -26.6800   -40.1910 H      3612  TIP3462     0.2052
 29749 OH2        -23.7540    -6.3900   -46.6110 O.3    3613  TIP3463    -0.4105
 29750 H1         -24.3360    -6.9020   -46.0500 H      3613  TIP3463     0.2052
 29751 H2         -23.9910    -6.6490   -47.5020 H      3613  TIP3463     0.2052
 29752 OH2         -3.7030    29.2230   -51.3350 O.3    3614  TIP3464    -0.4105
 29753 H1          -3.7670    29.1820   -50.3810 H      3614  TIP3464     0.2052
 29754 H2          -3.4580    28.3350   -51.5970 H      3614  TIP3464     0.2052
 29755 OH2         27.7750    29.7380    51.8670 O.3    3615  TIP3465    -0.4105
 29756 H1          28.1330    30.2010    51.1100 H      3615  TIP3465     0.2052
 29757 H2          27.0370    30.2780    52.1520 H      3615  TIP3465     0.2052
 29758 OH2         12.0350    30.8640    47.2510 O.3    3616  TIP3466    -0.4105
 29759 H1          12.8270    31.3430    47.0070 H      3616  TIP3466     0.2052
 29760 H2          12.0480    30.0820    46.6980 H      3616  TIP3466     0.2052
 29761 OH2         -9.5630   -24.2670   -30.0670 O.3    3617  TIP3467    -0.4105
 29762 H1          -9.3880   -23.4060   -30.4480 H      3617  TIP3467     0.2052
 29763 H2         -10.4490   -24.4830   -30.3600 H      3617  TIP3467     0.2052
 29764 OH2         18.8910    24.8630    33.3020 O.3    3618  TIP3468    -0.4105
 29765 H1          18.3770    25.0630    34.0840 H      3618  TIP3468     0.2052
 29766 H2          19.7020    25.3600    33.4140 H      3618  TIP3468     0.2052
 29767 OH2          6.3140    20.0480   -48.6060 O.3    3619  TIP3469    -0.4105
 29768 H1           5.6230    20.0010   -47.9450 H      3619  TIP3469     0.2052
 29769 H2           5.8520    19.9700   -49.4410 H      3619  TIP3469     0.2052
 29770 OH2         -0.7930    23.7600    20.4390 O.3    3620  TIP3470    -0.4105
 29771 H1          -0.1340    24.4540    20.4120 H      3620  TIP3470     0.2052
 29772 H2          -0.3480    23.0230    20.8570 H      3620  TIP3470     0.2052
 29773 OH2         19.9210    -6.1100   -42.1680 O.3    3621  TIP3471    -0.4105
 29774 H1          20.6830    -6.0750   -41.5910 H      3621  TIP3471     0.2052
 29775 H2          20.1910    -6.6810   -42.8880 H      3621  TIP3471     0.2052
 29776 OH2        -28.2030   -23.3280   -48.7680 O.3    3622  TIP3472    -0.4105
 29777 H1         -27.6250   -22.5660   -48.7370 H      3622  TIP3472     0.2052
 29778 H2         -28.8120   -23.1970   -48.0410 H      3622  TIP3472     0.2052
 29779 OH2        -31.1830   -31.5710   -44.9300 O.3    3623  TIP3473    -0.4105
 29780 H1         -31.1910   -32.4140   -45.3830 H      3623  TIP3473     0.2052
 29781 H2         -31.4090   -30.9330   -45.6070 H      3623  TIP3473     0.2052
 29782 OH2         27.0230    -5.8860   -31.3220 O.3    3624  TIP3474    -0.4105
 29783 H1          26.5610    -6.1340   -32.1230 H      3624  TIP3474     0.2052
 29784 H2          26.3570    -5.9340   -30.6360 H      3624  TIP3474     0.2052
 29785 OH2          7.7780   -13.3510   -34.2490 O.3    3625  TIP3475    -0.4105
 29786 H1           7.4580   -12.9220   -35.0430 H      3625  TIP3475     0.2052
 29787 H2           8.2250   -12.6570   -33.7650 H      3625  TIP3475     0.2052
 29788 OH2        -16.7380   -14.8870    29.8910 O.3    3626  TIP3476    -0.4105
 29789 H1         -16.9030   -13.9670    30.0980 H      3626  TIP3476     0.2052
 29790 H2         -17.5480   -15.1890    29.4800 H      3626  TIP3476     0.2052
 29791 OH2         18.2190     1.4480    41.9570 O.3    3627  TIP3477    -0.4105
 29792 H1          18.2230     0.5590    42.3110 H      3627  TIP3477     0.2052
 29793 H2          17.3120     1.7380    42.0460 H      3627  TIP3477     0.2052
 29794 OH2         26.6400   -32.8250    48.2240 O.3    3628  TIP3478    -0.4105
 29795 H1          26.4680   -31.8920    48.1010 H      3628  TIP3478     0.2052
 29796 H2          27.5120   -32.8590    48.6180 H      3628  TIP3478     0.2052
 29797 OH2        -28.1530   -16.2490   -54.2110 O.3    3629  TIP3479    -0.4105
 29798 H1         -28.9650   -15.7520   -54.1170 H      3629  TIP3479     0.2052
 29799 H2         -27.6210   -15.9850   -53.4600 H      3629  TIP3479     0.2052
 29800 OH2        -28.6120    22.8860    35.6540 O.3    3630  TIP3480    -0.4105
 29801 H1         -29.0610    22.8690    36.4990 H      3630  TIP3480     0.2052
 29802 H2         -29.2870    22.6400    35.0200 H      3630  TIP3480     0.2052
 29803 OH2        -29.2730    30.4180    40.8940 O.3    3631  TIP3481    -0.4105
 29804 H1         -30.1790    30.1850    40.6950 H      3631  TIP3481     0.2052
 29805 H2         -28.7490    29.7930    40.3930 H      3631  TIP3481     0.2052
 29806 OH2         25.5240    -9.2750    37.3040 O.3    3632  TIP3482    -0.4105
 29807 H1          26.0520    -8.4780    37.3290 H      3632  TIP3482     0.2052
 29808 H2          24.7760    -9.0510    36.7510 H      3632  TIP3482     0.2052
 29809 OH2        -30.6590     3.8210   -47.1700 O.3    3633  TIP3483    -0.4105
 29810 H1         -30.3080     3.7140   -48.0540 H      3633  TIP3483     0.2052
 29811 H2         -30.0590     3.3240   -46.6130 H      3633  TIP3483     0.2052
 29812 OH2          2.3550     4.4730   -54.4200 O.3    3634  TIP3484    -0.4105
 29813 H1           2.4630     5.0270   -53.6470 H      3634  TIP3484     0.2052
 29814 H2           1.9080     3.6910   -54.0950 H      3634  TIP3484     0.2052
 29815 OH2        -24.4470    18.9920   -35.7200 O.3    3635  TIP3485    -0.4105
 29816 H1         -23.6350    19.4320   -35.4650 H      3635  TIP3485     0.2052
 29817 H2         -25.0100    19.0620   -34.9490 H      3635  TIP3485     0.2052
 29818 OH2        -24.0830     7.3040   -16.5660 O.3    3636  TIP3486    -0.4105
 29819 H1         -23.2240     7.4340   -16.9670 H      3636  TIP3486     0.2052
 29820 H2         -24.2960     8.1510   -16.1740 H      3636  TIP3486     0.2052
 29821 OH2         16.1490     1.0110    49.9970 O.3    3637  TIP3487    -0.4105
 29822 H1          16.7360     1.6060    49.5300 H      3637  TIP3487     0.2052
 29823 H2          15.9010     0.3580    49.3430 H      3637  TIP3487     0.2052
 29824 OH2         11.3300    12.5940   -52.3240 O.3    3638  TIP3488    -0.4105
 29825 H1          10.4760    13.0230   -52.3890 H      3638  TIP3488     0.2052
 29826 H2          11.8180    13.1250   -51.6950 H      3638  TIP3488     0.2052
 29827 OH2        -15.0070    -6.9860   -45.7940 O.3    3639  TIP3489    -0.4105
 29828 H1         -14.2990    -7.3900   -46.2960 H      3639  TIP3489     0.2052
 29829 H2         -15.6970    -6.8270   -46.4370 H      3639  TIP3489     0.2052
 29830 OH2        -20.9370   -28.3500   -54.5270 O.3    3640  TIP3490    -0.4105
 29831 H1         -20.5630   -28.3760   -55.4070 H      3640  TIP3490     0.2052
 29832 H2         -20.7270   -27.4740   -54.2030 H      3640  TIP3490     0.2052
 29833 OH2        -15.1220    32.1180    19.4050 O.3    3641  TIP3491    -0.4105
 29834 H1         -14.2320    32.1780    19.0580 H      3641  TIP3491     0.2052
 29835 H2         -15.5430    32.9310    19.1280 H      3641  TIP3491     0.2052
 29836 OH2         23.0610   -16.3920   -35.6340 O.3    3642  TIP3492    -0.4105
 29837 H1          23.1920   -16.0320   -36.5110 H      3642  TIP3492     0.2052
 29838 H2          22.2610   -16.9130   -35.7050 H      3642  TIP3492     0.2052
 29839 OH2        -19.9600   -33.0210    31.9150 O.3    3643  TIP3493    -0.4105
 29840 H1         -19.2850   -33.4540    32.4370 H      3643  TIP3493     0.2052
 29841 H2         -19.6910   -33.1640    31.0080 H      3643  TIP3493     0.2052
 29842 OH2        -29.4950   -16.6500    43.5200 O.3    3644  TIP3494    -0.4105
 29843 H1         -30.3640   -16.7590    43.1320 H      3644  TIP3494     0.2052
 29844 H2         -29.2900   -15.7240    43.3920 H      3644  TIP3494     0.2052
 29845 OH2         23.1470    24.3890   -39.8490 O.3    3645  TIP3495    -0.4105
 29846 H1          22.5990    25.0540   -39.4320 H      3645  TIP3495     0.2052
 29847 H2          22.5660    23.9580   -40.4760 H      3645  TIP3495     0.2052
 29848 OH2         32.6120    17.8000    40.5240 O.3    3646  TIP3496    -0.4105
 29849 H1          32.1920    17.2090    41.1480 H      3646  TIP3496     0.2052
 29850 H2          33.4500    17.3820    40.3240 H      3646  TIP3496     0.2052
 29851 OH2         -0.4320   -24.2910   -54.9160 O.3    3647  TIP3497    -0.4105
 29852 H1          -0.8940   -23.6750   -54.3470 H      3647  TIP3497     0.2052
 29853 H2          -1.1090   -24.6310   -55.5020 H      3647  TIP3497     0.2052
 29854 OH2         -5.3230    -6.7760   -32.3460 O.3    3648  TIP3498    -0.4105
 29855 H1          -5.5820    -5.9910   -31.8620 H      3648  TIP3498     0.2052
 29856 H2          -4.5400    -7.0890   -31.8940 H      3648  TIP3498     0.2052
 29857 OH2        -31.1860    28.1710   -53.9050 O.3    3649  TIP3499    -0.4105
 29858 H1         -31.6890    28.0550   -54.7110 H      3649  TIP3499     0.2052
 29859 H2         -31.2640    29.1050   -53.7060 H      3649  TIP3499     0.2052
 29860 OH2        -25.1830     5.5370   -29.1080 O.3    3650  TIP3500    -0.4105
 29861 H1         -25.9330     5.2120   -29.6070 H      3650  TIP3500     0.2052
 29862 H2         -24.4190     5.2510   -29.6090 H      3650  TIP3500     0.2052
 29863 OH2         20.2580   -17.4850   -34.7220 O.3    3651  TIP3501    -0.4105
 29864 H1          20.3990   -16.5380   -34.7220 H      3651  TIP3501     0.2052
 29865 H2          19.3270   -17.5900   -34.9150 H      3651  TIP3501     0.2052
 29866 OH2          4.3740    21.2540   -23.2010 O.3    3652  TIP3502    -0.4105
 29867 H1           4.5670    20.3370   -23.0020 H      3652  TIP3502     0.2052
 29868 H2           4.5170    21.7140   -22.3740 H      3652  TIP3502     0.2052
 29869 OH2          5.8030     2.5370    55.0240 O.3    3653  TIP3503    -0.4105
 29870 H1           5.3140     1.8810    55.5210 H      3653  TIP3503     0.2052
 29871 H2           6.6930     2.1870    54.9760 H      3653  TIP3503     0.2052
 29872 OH2         10.3280    -2.4300   -15.0230 O.3    3654  TIP3504    -0.4105
 29873 H1          10.0640    -2.6760   -14.1370 H      3654  TIP3504     0.2052
 29874 H2          10.5840    -1.5100   -14.9510 H      3654  TIP3504     0.2052
 29875 OH2         -5.3400    18.5670   -19.6170 O.3    3655  TIP3505    -0.4105
 29876 H1          -5.3080    17.8090   -20.2010 H      3655  TIP3505     0.2052
 29877 H2          -4.6270    18.4200   -18.9950 H      3655  TIP3505     0.2052
 29878 OH2         -1.7600   -12.2300    41.4980 O.3    3656  TIP3506    -0.4105
 29879 H1          -1.8360   -11.2830    41.3840 H      3656  TIP3506     0.2052
 29880 H2          -2.0780   -12.5970    40.6730 H      3656  TIP3506     0.2052
 29881 OH2         13.3210    28.4590    35.6740 O.3    3657  TIP3507    -0.4105
 29882 H1          13.7610    27.6790    35.3380 H      3657  TIP3507     0.2052
 29883 H2          13.9490    29.1680    35.5380 H      3657  TIP3507     0.2052
 29884 OH2         -9.7330   -19.6380   -24.2280 O.3    3658  TIP3508    -0.4105
 29885 H1         -10.6280   -19.5240   -24.5470 H      3658  TIP3508     0.2052
 29886 H2          -9.6910   -19.1000   -23.4370 H      3658  TIP3508     0.2052
 29887 OH2         20.7270    31.6490   -23.9000 O.3    3659  TIP3509    -0.4105
 29888 H1          20.9250    30.9890   -23.2350 H      3659  TIP3509     0.2052
 29889 H2          20.3160    32.3630   -23.4140 H      3659  TIP3509     0.2052
 29890 OH2        -28.1610    -4.1180    40.9360 O.3    3660  TIP3510    -0.4105
 29891 H1         -27.9990    -4.3650    40.0260 H      3660  TIP3510     0.2052
 29892 H2         -28.9100    -3.5240    40.8940 H      3660  TIP3510     0.2052
 29893 OH2        -17.9860    24.2390    38.5750 O.3    3661  TIP3511    -0.4105
 29894 H1         -17.9860    23.3030    38.3750 H      3661  TIP3511     0.2052
 29895 H2         -18.0970    24.6650    37.7250 H      3661  TIP3511     0.2052
 29896 OH2        -16.5250    26.3390    33.2140 O.3    3662  TIP3512    -0.4105
 29897 H1         -15.8480    26.0910    33.8440 H      3662  TIP3512     0.2052
 29898 H2         -16.3990    25.7400    32.4790 H      3662  TIP3512     0.2052
 29899 OH2         31.0230   -31.5120    49.7700 O.3    3663  TIP3513    -0.4105
 29900 H1          31.2020   -31.6710    48.8430 H      3663  TIP3513     0.2052
 29901 H2          31.7930   -31.0370    50.0840 H      3663  TIP3513     0.2052
 29902 OH2         29.6700    30.6740   -32.8820 O.3    3664  TIP3514    -0.4105
 29903 H1          29.7760    29.8810   -33.4070 H      3664  TIP3514     0.2052
 29904 H2          29.8720    30.3980   -31.9880 H      3664  TIP3514     0.2052
 29905 OH2         25.6710    24.7310    28.4070 O.3    3665  TIP3515    -0.4105
 29906 H1          25.6110    24.9210    29.3440 H      3665  TIP3515     0.2052
 29907 H2          26.3660    24.0760    28.3400 H      3665  TIP3515     0.2052
 29908 OH2        -31.7370    11.9060    42.1440 O.3    3666  TIP3516    -0.4105
 29909 H1         -31.3950    11.4230    42.8960 H      3666  TIP3516     0.2052
 29910 H2         -32.6780    11.7310    42.1540 H      3666  TIP3516     0.2052
 29911 OH2        -20.1240    -9.2740   -50.5370 O.3    3667  TIP3517    -0.4105
 29912 H1         -20.0420    -8.6590   -51.2660 H      3667  TIP3517     0.2052
 29913 H2         -19.9250   -10.1280   -50.9200 H      3667  TIP3517     0.2052
 29914 OH2         -2.3610   -16.0400   -47.9890 O.3    3668  TIP3518    -0.4105
 29915 H1          -3.1920   -15.7220   -48.3410 H      3668  TIP3518     0.2052
 29916 H2          -2.2350   -16.8930   -48.4050 H      3668  TIP3518     0.2052
 29917 OH2         -3.1190    22.7040    42.8340 O.3    3669  TIP3519    -0.4105
 29918 H1          -2.2280    22.4630    42.5790 H      3669  TIP3519     0.2052
 29919 H2          -3.0810    23.6500    42.9750 H      3669  TIP3519     0.2052
 29920 OH2         10.0710    31.8580   -50.4410 O.3    3670  TIP3520    -0.4105
 29921 H1           9.9430    32.4470   -49.6980 H      3670  TIP3520     0.2052
 29922 H2           9.5930    32.2710   -51.1600 H      3670  TIP3520     0.2052
 29923 OH2        -12.7620   -25.9890    53.8930 O.3    3671  TIP3521    -0.4105
 29924 H1         -12.6840   -26.8980    54.1820 H      3671  TIP3521     0.2052
 29925 H2         -11.9340   -25.8050    53.4500 H      3671  TIP3521     0.2052
 29926 OH2        -32.9280    18.1090    43.5010 O.3    3672  TIP3522    -0.4105
 29927 H1         -33.1200    18.3270    44.4130 H      3672  TIP3522     0.2052
 29928 H2         -33.4790    18.7030    42.9910 H      3672  TIP3522     0.2052
 29929 OH2          5.3900    -3.9860    43.6060 O.3    3673  TIP3523    -0.4105
 29930 H1           5.2710    -4.0230    44.5550 H      3673  TIP3523     0.2052
 29931 H2           4.9570    -4.7750    43.2790 H      3673  TIP3523     0.2052
 29932 OH2        -18.6410     1.7180    44.1790 O.3    3674  TIP3524    -0.4105
 29933 H1         -18.8710     0.9930    43.5970 H      3674  TIP3524     0.2052
 29934 H2         -18.7820     1.3720    45.0600 H      3674  TIP3524     0.2052
 29935 OH2         24.6980   -11.4660   -36.8410 O.3    3675  TIP3525    -0.4105
 29936 H1          24.0620   -11.2220   -37.5130 H      3675  TIP3525     0.2052
 29937 H2          24.5600   -12.4040   -36.7090 H      3675  TIP3525     0.2052
 29938 OH2        -15.6900    17.9690    37.3880 O.3    3676  TIP3526    -0.4105
 29939 H1         -14.7950    17.9630    37.0460 H      3676  TIP3526     0.2052
 29940 H2         -16.0120    18.8510    37.2020 H      3676  TIP3526     0.2052
 29941 OH2         29.4960   -14.1930   -34.6620 O.3    3677  TIP3527    -0.4105
 29942 H1          29.3940   -14.0270   -33.7250 H      3677  TIP3527     0.2052
 29943 H2          30.3680   -13.8560   -34.8710 H      3677  TIP3527     0.2052
 29944 OH2         -3.3350     3.6790    34.1130 O.3    3678  TIP3528    -0.4105
 29945 H1          -3.4780     4.5390    34.5090 H      3678  TIP3528     0.2052
 29946 H2          -2.6990     3.2530    34.6870 H      3678  TIP3528     0.2052
 29947 OH2          2.7070    -6.5820    36.5080 O.3    3679  TIP3529    -0.4105
 29948 H1           2.8200    -5.7430    36.9550 H      3679  TIP3529     0.2052
 29949 H2           1.7680    -6.7590    36.5620 H      3679  TIP3529     0.2052
 29950 OH2         26.9490   -22.7930    48.0980 O.3    3680  TIP3530    -0.4105
 29951 H1          27.6420   -23.4520    48.1430 H      3680  TIP3530     0.2052
 29952 H2          27.1840   -22.2480    47.3470 H      3680  TIP3530     0.2052
 29953 OH2        -19.3290   -15.9790   -32.9580 O.3    3681  TIP3531    -0.4105
 29954 H1         -20.2030   -16.1300   -33.3180 H      3681  TIP3531     0.2052
 29955 H2         -18.8880   -15.4430   -33.6170 H      3681  TIP3531     0.2052
 29956 OH2          6.5620    14.5490    38.4620 O.3    3682  TIP3532    -0.4105
 29957 H1           7.3140    14.3960    39.0340 H      3682  TIP3532     0.2052
 29958 H2           6.7100    15.4230    38.1000 H      3682  TIP3532     0.2052
 29959 OH2        -27.5260   -22.9350   -23.7180 O.3    3683  TIP3533    -0.4105
 29960 H1         -26.6630   -22.8980   -23.3070 H      3683  TIP3533     0.2052
 29961 H2         -28.0390   -23.5090   -23.1500 H      3683  TIP3533     0.2052
 29962 OH2         26.5680    -6.4440   -45.4260 O.3    3684  TIP3534    -0.4105
 29963 H1          25.8440    -6.1200   -45.9630 H      3684  TIP3534     0.2052
 29964 H2          27.2970    -5.8580   -45.6280 H      3684  TIP3534     0.2052
 29965 OH2         20.5960   -31.2770    50.7720 O.3    3685  TIP3535    -0.4105
 29966 H1          20.9360   -32.1480    50.9730 H      3685  TIP3535     0.2052
 29967 H2          20.3910   -30.8960    51.6260 H      3685  TIP3535     0.2052
 29968 OH2         -6.8960    23.4920   -51.4060 O.3    3686  TIP3536    -0.4105
 29969 H1          -7.6020    23.8630   -50.8770 H      3686  TIP3536     0.2052
 29970 H2          -6.3770    22.9780   -50.7880 H      3686  TIP3536     0.2052
 29971 OH2         32.2580    15.7740    45.5370 O.3    3687  TIP3537    -0.4105
 29972 H1          33.0950    15.3550    45.3380 H      3687  TIP3537     0.2052
 29973 H2          32.2380    15.8310    46.4920 H      3687  TIP3537     0.2052
 29974 OH2          4.2370    27.2470   -52.7620 O.3    3688  TIP3538    -0.4105
 29975 H1           5.1250    27.4950   -52.5060 H      3688  TIP3538     0.2052
 29976 H2           3.8420    28.0610   -53.0750 H      3688  TIP3538     0.2052
 29977 OH2        -19.0710    17.6540    38.4810 O.3    3689  TIP3539    -0.4105
 29978 H1         -19.9610    17.5130    38.8030 H      3689  TIP3539     0.2052
 29979 H2         -18.5730    16.9080    38.8160 H      3689  TIP3539     0.2052
 29980 OH2         -0.8890     1.8660    32.8230 O.3    3690  TIP3540    -0.4105
 29981 H1          -0.1910     1.6490    33.4420 H      3690  TIP3540     0.2052
 29982 H2          -0.9820     2.8170    32.8910 H      3690  TIP3540     0.2052
 29983 OH2         32.6660   -24.2590   -46.3770 O.3    3691  TIP3541    -0.4105
 29984 H1          33.5320   -24.6650   -46.3500 H      3691  TIP3541     0.2052
 29985 H2          32.7270   -23.5220   -45.7700 H      3691  TIP3541     0.2052
 29986 OH2          1.7180   -22.4740   -24.1080 O.3    3692  TIP3542    -0.4105
 29987 H1           0.9060   -21.9770   -24.0150 H      3692  TIP3542     0.2052
 29988 H2           2.0660   -22.5340   -23.2180 H      3692  TIP3542     0.2052
 29989 OH2         11.8940    -1.1080    19.8170 O.3    3693  TIP3543    -0.4105
 29990 H1          11.9660    -0.4290    19.1460 H      3693  TIP3543     0.2052
 29991 H2          10.9540    -1.1870    19.9790 H      3693  TIP3543     0.2052
 29992 OH2         24.4130     6.2720   -25.1780 O.3    3694  TIP3544    -0.4105
 29993 H1          23.9320     5.4530   -25.0600 H      3694  TIP3544     0.2052
 29994 H2          25.2230     6.0130   -25.6170 H      3694  TIP3544     0.2052
 29995 OH2         18.4770   -29.2730    49.1720 O.3    3695  TIP3545    -0.4105
 29996 H1          18.8700   -30.1190    49.3840 H      3695  TIP3545     0.2052
 29997 H2          19.1000   -28.6280    49.5070 H      3695  TIP3545     0.2052
 29998 OH2         23.4340    10.7730   -47.8520 O.3    3696  TIP3546    -0.4105
 29999 H1          22.7070    10.1860   -48.0580 H      3696  TIP3546     0.2052
 30000 H2          23.3230    11.5120   -48.4500 H      3696  TIP3546     0.2052
 30001 OH2         -1.2460   -30.3480    39.7820 O.3    3697  TIP3547    -0.4105
 30002 H1          -1.2050   -29.4660    39.4110 H      3697  TIP3547     0.2052
 30003 H2          -1.0760   -30.9280    39.0400 H      3697  TIP3547     0.2052
 30004 OH2        -28.3730    21.3160   -26.3310 O.3    3698  TIP3548    -0.4105
 30005 H1         -28.2190    20.4090   -26.0660 H      3698  TIP3548     0.2052
 30006 H2         -27.7490    21.8260   -25.8150 H      3698  TIP3548     0.2052
 30007 OH2        -31.2070   -31.7500    53.8540 O.3    3699  TIP3549    -0.4105
 30008 H1         -31.2470   -30.8770    53.4640 H      3699  TIP3549     0.2052
 30009 H2         -32.0580   -31.8620    54.2780 H      3699  TIP3549     0.2052
 30010 OH2         15.1620    -5.1930    32.6860 O.3    3700  TIP3550    -0.4105
 30011 H1          15.8570    -5.0080    33.3170 H      3700  TIP3550     0.2052
 30012 H2          15.1000    -6.1480    32.6700 H      3700  TIP3550     0.2052
 30013 OH2         -0.3440    17.9580   -25.8210 O.3    3701  TIP3551    -0.4105
 30014 H1          -0.6510    18.3370   -24.9970 H      3701  TIP3551     0.2052
 30015 H2           0.5780    18.2120   -25.8730 H      3701  TIP3551     0.2052
 30016 OH2        -14.1620   -30.3090   -18.3720 O.3    3702  TIP3552    -0.4105
 30017 H1         -13.7960   -29.7180   -19.0300 H      3702  TIP3552     0.2052
 30018 H2         -13.6360   -31.1060   -18.4450 H      3702  TIP3552     0.2052
 30019 OH2         -5.3360    12.1360   -15.7910 O.3    3703  TIP3553    -0.4105
 30020 H1          -5.9090    11.8280   -15.0880 H      3703  TIP3553     0.2052
 30021 H2          -5.5510    13.0640   -15.8870 H      3703  TIP3553     0.2052
 30022 OH2         -2.7040    -8.3160    36.9310 O.3    3704  TIP3554    -0.4105
 30023 H1          -2.1780    -8.8970    37.4810 H      3704  TIP3554     0.2052
 30024 H2          -3.3970    -8.8780    36.5840 H      3704  TIP3554     0.2052
 30025 OH2        -13.9780    14.3230    26.6290 O.3    3705  TIP3555    -0.4105
 30026 H1         -14.5870    13.7890    27.1390 H      3705  TIP3555     0.2052
 30027 H2         -13.1220    13.9230    26.7830 H      3705  TIP3555     0.2052
 30028 OH2         29.1270    26.5370    25.2660 O.3    3706  TIP3556    -0.4105
 30029 H1          28.5640    26.2070    25.9660 H      3706  TIP3556     0.2052
 30030 H2          29.5050    27.3420    25.6220 H      3706  TIP3556     0.2052
 30031 OH2        -18.0110     6.4140    20.1590 O.3    3707  TIP3557    -0.4105
 30032 H1         -18.6790     5.7640    19.9410 H      3707  TIP3557     0.2052
 30033 H2         -18.0500     7.0470    19.4410 H      3707  TIP3557     0.2052
 30034 OH2         10.8390   -15.6640    50.7400 O.3    3708  TIP3558    -0.4105
 30035 H1          11.6500   -15.5420    51.2330 H      3708  TIP3558     0.2052
 30036 H2          10.7550   -14.8690    50.2140 H      3708  TIP3558     0.2052
 30037 OH2         27.4030   -32.8660    51.8910 O.3    3709  TIP3559    -0.4105
 30038 H1          27.5930   -33.0580    50.9720 H      3709  TIP3559     0.2052
 30039 H2          26.6570   -32.2670    51.8610 H      3709  TIP3559     0.2052
 30040 OH2         -2.5130    -2.4870   -24.9250 O.3    3710  TIP3560    -0.4105
 30041 H1          -2.3270    -2.4030   -23.9900 H      3710  TIP3560     0.2052
 30042 H2          -2.3310    -3.4060   -25.1250 H      3710  TIP3560     0.2052
 30043 OH2        -23.5880   -21.4670    38.4700 O.3    3711  TIP3561    -0.4105
 30044 H1         -23.7430   -22.2250    39.0340 H      3711  TIP3561     0.2052
 30045 H2         -23.7330   -20.7110    39.0390 H      3711  TIP3561     0.2052
 30046 OH2         12.8740    -7.1090    22.5150 O.3    3712  TIP3562    -0.4105
 30047 H1          13.3340    -7.0980    23.3550 H      3712  TIP3562     0.2052
 30048 H2          12.0500    -6.6530    22.6880 H      3712  TIP3562     0.2052
 30049 OH2         -8.2300    31.2190   -48.9620 O.3    3713  TIP3563    -0.4105
 30050 H1          -7.7140    31.0190   -49.7420 H      3713  TIP3563     0.2052
 30051 H2          -7.9110    32.0750   -48.6760 H      3713  TIP3563     0.2052
 30052 OH2         17.8500     2.7740   -46.6930 O.3    3714  TIP3564    -0.4105
 30053 H1          17.7940     1.8310   -46.8490 H      3714  TIP3564     0.2052
 30054 H2          18.3310     3.1130   -47.4480 H      3714  TIP3564     0.2052
 30055 OH2          3.6380   -29.2620   -25.5150 O.3    3715  TIP3565    -0.4105
 30056 H1           2.9480   -29.9220   -25.4490 H      3715  TIP3565     0.2052
 30057 H2           4.3270   -29.5740   -24.9290 H      3715  TIP3565     0.2052
 30058 OH2         10.8920   -25.1600    26.5490 O.3    3716  TIP3566    -0.4105
 30059 H1          10.9130   -26.1170    26.5450 H      3716  TIP3566     0.2052
 30060 H2          10.4180   -24.9270    25.7500 H      3716  TIP3566     0.2052
 30061 OH2          1.0620   -20.4230    34.4610 O.3    3717  TIP3567    -0.4105
 30062 H1           1.8210   -19.8420    34.5080 H      3717  TIP3567     0.2052
 30063 H2           0.7660   -20.3580    33.5530 H      3717  TIP3567     0.2052
 30064 OH2          3.9830    10.3020   -31.3700 O.3    3718  TIP3568    -0.4105
 30065 H1           3.6710    10.7510   -32.1550 H      3718  TIP3568     0.2052
 30066 H2           4.1850    11.0070   -30.7550 H      3718  TIP3568     0.2052
 30067 OH2        -13.0950     9.0410    46.7960 O.3    3719  TIP3569    -0.4105
 30068 H1         -12.8920     9.6680    47.4900 H      3719  TIP3569     0.2052
 30069 H2         -12.6020     8.2550    47.0300 H      3719  TIP3569     0.2052
 30070 OH2         30.9330   -17.4280   -41.7010 O.3    3720  TIP3570    -0.4105
 30071 H1          30.7060   -18.0530   -41.0120 H      3720  TIP3570     0.2052
 30072 H2          30.2770   -17.5730   -42.3820 H      3720  TIP3570     0.2052
 30073 OH2        -21.7540   -27.0370    52.9780 O.3    3721  TIP3571    -0.4105
 30074 H1         -22.5270   -27.5400    52.7210 H      3721  TIP3571     0.2052
 30075 H2         -22.1020   -26.1940    53.2680 H      3721  TIP3571     0.2052
 30076 OH2         19.7960   -11.8370   -43.4490 O.3    3722  TIP3572    -0.4105
 30077 H1          20.0850   -12.7320   -43.2710 H      3722  TIP3572     0.2052
 30078 H2          19.9140   -11.7300   -44.3920 H      3722  TIP3572     0.2052
 30079 OH2          3.9700    14.6050    22.0440 O.3    3723  TIP3573    -0.4105
 30080 H1           4.2770    14.9900    21.2240 H      3723  TIP3573     0.2052
 30081 H2           3.2770    13.9990    21.7800 H      3723  TIP3573     0.2052
 30082 OH2         15.2490     2.8720    54.6080 O.3    3724  TIP3574    -0.4105
 30083 H1          15.5130     2.1520    54.0340 H      3724  TIP3574     0.2052
 30084 H2          15.1020     3.6090    54.0150 H      3724  TIP3574     0.2052
 30085 OH2        -17.1010   -29.1040   -50.5800 O.3    3725  TIP3575    -0.4105
 30086 H1         -17.5240   -28.4700   -51.1600 H      3725  TIP3575     0.2052
 30087 H2         -16.7390   -29.7650   -51.1710 H      3725  TIP3575     0.2052
 30088 OH2        -22.5890    -3.0810   -40.6490 O.3    3726  TIP3576    -0.4105
 30089 H1         -23.0080    -3.4700   -39.8810 H      3726  TIP3576     0.2052
 30090 H2         -22.7280    -2.1400   -40.5480 H      3726  TIP3576     0.2052
 30091 OH2         13.3420   -32.5660   -35.9070 O.3    3727  TIP3577    -0.4105
 30092 H1          14.0330   -33.2230   -35.8300 H      3727  TIP3577     0.2052
 30093 H2          13.5730   -31.8980   -35.2620 H      3727  TIP3577     0.2052
 30094 OH2         -1.9540    31.6690   -53.4390 O.3    3728  TIP3578    -0.4105
 30095 H1          -2.4470    31.7870   -52.6270 H      3728  TIP3578     0.2052
 30096 H2          -1.7660    32.5590   -53.7380 H      3728  TIP3578     0.2052
 30097 OH2        -31.9820    -7.5060    24.2860 O.3    3729  TIP3579    -0.4105
 30098 H1         -31.3920    -7.2950    23.5630 H      3729  TIP3579     0.2052
 30099 H2         -32.3480    -6.6620    24.5510 H      3729  TIP3579     0.2052
 30100 OH2         10.3910    32.5790    29.1570 O.3    3730  TIP3580    -0.4105
 30101 H1          11.3190    32.3620    29.0650 H      3730  TIP3580     0.2052
 30102 H2          10.3450    33.5180    28.9770 H      3730  TIP3580     0.2052
 30103 OH2        -24.0940    17.3740    32.4610 O.3    3731  TIP3581    -0.4105
 30104 H1         -24.9620    16.9930    32.3320 H      3731  TIP3581     0.2052
 30105 H2         -23.5630    17.0080    31.7530 H      3731  TIP3581     0.2052
 30106 OH2         12.1350    -2.1590   -19.2620 O.3    3732  TIP3582    -0.4105
 30107 H1          12.2170    -3.0150   -19.6840 H      3732  TIP3582     0.2052
 30108 H2          12.9600    -2.0450   -18.7890 H      3732  TIP3582     0.2052
 30109 OH2         25.0100    12.3430   -12.6320 O.3    3733  TIP3583    -0.4105
 30110 H1          25.7020    12.5680   -13.2530 H      3733  TIP3583     0.2052
 30111 H2          25.1220    11.4050   -12.4780 H      3733  TIP3583     0.2052
 30112 OH2          9.7240     5.6430    55.0640 O.3    3734  TIP3584    -0.4105
 30113 H1          10.5770     5.2770    55.2990 H      3734  TIP3584     0.2052
 30114 H2           9.3690     5.9730    55.8890 H      3734  TIP3584     0.2052
 30115 OH2        -23.6920   -24.0190    50.3450 O.3    3735  TIP3585    -0.4105
 30116 H1         -24.0280   -24.0380    51.2420 H      3735  TIP3585     0.2052
 30117 H2         -24.4430   -23.7530    49.8140 H      3735  TIP3585     0.2052
 30118 OH2         -3.5790    -2.0620   -40.1240 O.3    3736  TIP3586    -0.4105
 30119 H1          -4.4630    -2.3310   -40.3740 H      3736  TIP3586     0.2052
 30120 H2          -3.0940    -2.0380   -40.9490 H      3736  TIP3586     0.2052
 30121 OH2        -21.3400     0.8720   -23.4540 O.3    3737  TIP3587    -0.4105
 30122 H1         -21.7130     1.0180   -22.5850 H      3737  TIP3587     0.2052
 30123 H2         -22.0330     1.1320   -24.0600 H      3737  TIP3587     0.2052
 30124 OH2        -15.5650    25.6780    23.2660 O.3    3738  TIP3588    -0.4105
 30125 H1         -15.6780    24.9490    22.6560 H      3738  TIP3588     0.2052
 30126 H2         -14.7000    26.0310    23.0610 H      3738  TIP3588     0.2052
 30127 OH2          1.4710   -32.5710   -47.8020 O.3    3739  TIP3589    -0.4105
 30128 H1           0.7500   -32.9980   -47.3390 H      3739  TIP3589     0.2052
 30129 H2           1.0870   -32.2830   -48.6300 H      3739  TIP3589     0.2052
 30130 OH2         -0.9690    12.4980    30.0950 O.3    3740  TIP3590    -0.4105
 30131 H1          -0.5780    13.0800    30.7470 H      3740  TIP3590     0.2052
 30132 H2          -1.5640    13.0600    29.5990 H      3740  TIP3590     0.2052
 30133 OH2          4.7040    31.6150   -38.5650 O.3    3741  TIP3591    -0.4105
 30134 H1           4.2910    32.4380   -38.3030 H      3741  TIP3591     0.2052
 30135 H2           5.6160    31.8470   -38.7360 H      3741  TIP3591     0.2052
 30136 OH2        -22.1770   -24.3800    29.7240 O.3    3742  TIP3592    -0.4105
 30137 H1         -21.2600   -24.6520    29.6860 H      3742  TIP3592     0.2052
 30138 H2         -22.3080   -24.1020    30.6300 H      3742  TIP3592     0.2052
 30139 OH2         -3.5350   -30.5580    27.6780 O.3    3743  TIP3593    -0.4105
 30140 H1          -2.8780   -30.0180    27.2380 H      3743  TIP3593     0.2052
 30141 H2          -3.0340   -31.0810    28.3050 H      3743  TIP3593     0.2052
 30142 OH2          2.9380   -20.0860    37.2570 O.3    3744  TIP3594    -0.4105
 30143 H1           2.9580   -19.3250    36.6770 H      3744  TIP3594     0.2052
 30144 H2           3.2660   -20.8060    36.7190 H      3744  TIP3594     0.2052
 30145 OH2          3.9130     9.5100    39.2400 O.3    3745  TIP3595    -0.4105
 30146 H1           4.5980     8.9690    39.6320 H      3745  TIP3595     0.2052
 30147 H2           4.1370     9.5450    38.3100 H      3745  TIP3595     0.2052
 30148 OH2         22.9770   -19.8750   -53.9060 O.3    3746  TIP3596    -0.4105
 30149 H1          23.7090   -19.3560   -54.2410 H      3746  TIP3596     0.2052
 30150 H2          22.8570   -19.5670   -53.0080 H      3746  TIP3596     0.2052
 30151 OH2         -6.2640   -28.0580    28.8510 O.3    3747  TIP3597    -0.4105
 30152 H1          -6.9450   -28.4270    29.4130 H      3747  TIP3597     0.2052
 30153 H2          -6.2480   -27.1270    29.0740 H      3747  TIP3597     0.2052
 30154 OH2         18.5500    25.4510   -55.3160 O.3    3748  TIP3598    -0.4105
 30155 H1          18.6890    25.6910   -54.4000 H      3748  TIP3598     0.2052
 30156 H2          18.2350    24.5480   -55.2830 H      3748  TIP3598     0.2052
 30157 OH2         22.2350   -33.0070   -40.2570 O.3    3749  TIP3599    -0.4105
 30158 H1          22.4590   -33.7980   -39.7670 H      3749  TIP3599     0.2052
 30159 H2          21.2810   -33.0290   -40.3260 H      3749  TIP3599     0.2052
 30160 OH2         25.9070    -0.4660   -23.6830 O.3    3750  TIP3600    -0.4105
 30161 H1          26.4690    -0.8860   -24.3340 H      3750  TIP3600     0.2052
 30162 H2          25.1710    -0.1210   -24.1880 H      3750  TIP3600     0.2052
 30163 OH2         12.5590     5.9780    25.6200 O.3    3751  TIP3601    -0.4105
 30164 H1          11.6380     6.2320    25.5630 H      3751  TIP3601     0.2052
 30165 H2          12.7780     5.6720    24.7390 H      3751  TIP3601     0.2052
 30166 OH2         15.2060   -17.6470   -48.2020 O.3    3752  TIP3602    -0.4105
 30167 H1          15.7380   -17.6710   -48.9980 H      3752  TIP3602     0.2052
 30168 H2          14.5550   -18.3380   -48.3270 H      3752  TIP3602     0.2052
 30169 OH2          7.3260   -29.6260   -18.3250 O.3    3753  TIP3603    -0.4105
 30170 H1           6.6170   -29.9780   -18.8640 H      3753  TIP3603     0.2052
 30171 H2           7.2940   -28.6820   -18.4740 H      3753  TIP3603     0.2052
 30172 OH2         26.2460   -23.2250    30.7600 O.3    3754  TIP3604    -0.4105
 30173 H1          25.7660   -22.9370    29.9830 H      3754  TIP3604     0.2052
 30174 H2          25.6650   -23.8590    31.1800 H      3754  TIP3604     0.2052
 30175 OH2        -32.4010    13.1210   -45.8620 O.3    3755  TIP3605    -0.4105
 30176 H1         -33.2670    13.5050   -45.9990 H      3755  TIP3605     0.2052
 30177 H2         -31.7980    13.7300   -46.2860 H      3755  TIP3605     0.2052
 30178 OH2         -4.6500   -20.0320   -37.2230 O.3    3756  TIP3606    -0.4105
 30179 H1          -4.1520   -20.6940   -36.7430 H      3756  TIP3606     0.2052
 30180 H2          -5.5410   -20.1090   -36.8820 H      3756  TIP3606     0.2052
 30181 OH2         25.8900   -20.8370   -54.7570 O.3    3757  TIP3607    -0.4105
 30182 H1          25.4480   -21.6290   -55.0630 H      3757  TIP3607     0.2052
 30183 H2          26.7210   -20.8270   -55.2330 H      3757  TIP3607     0.2052
 30184 OH2        -21.5400   -18.2060   -32.9030 O.3    3758  TIP3608    -0.4105
 30185 H1         -22.3270   -18.0240   -32.3890 H      3758  TIP3608     0.2052
 30186 H2         -21.8630   -18.6450   -33.6890 H      3758  TIP3608     0.2052
 30187 OH2          5.8570    16.6790   -53.3470 O.3    3759  TIP3609    -0.4105
 30188 H1           5.9940    15.7320   -53.3850 H      3759  TIP3609     0.2052
 30189 H2           4.9900    16.8110   -53.7310 H      3759  TIP3609     0.2052
 30190 OH2         32.0930   -31.6170   -51.4500 O.3    3760  TIP3610    -0.4105
 30191 H1          31.6310   -30.7920   -51.3060 H      3760  TIP3610     0.2052
 30192 H2          32.8940   -31.5370   -50.9320 H      3760  TIP3610     0.2052
 30193 OH2        -13.4610    13.3050    46.3780 O.3    3761  TIP3611    -0.4105
 30194 H1         -12.8480    12.5860    46.5330 H      3761  TIP3611     0.2052
 30195 H2         -12.9210    14.0070    46.0150 H      3761  TIP3611     0.2052
 30196 OH2         12.8180   -25.8920    46.3460 O.3    3762  TIP3612    -0.4105
 30197 H1          12.5220   -25.1760    45.7850 H      3762  TIP3612     0.2052
 30198 H2          12.8270   -26.6580    45.7720 H      3762  TIP3612     0.2052
 30199 OH2         18.6940   -10.6770    39.9710 O.3    3763  TIP3613    -0.4105
 30200 H1          19.6220   -10.8510    39.8110 H      3763  TIP3613     0.2052
 30201 H2          18.3120   -11.5410    40.1260 H      3763  TIP3613     0.2052
 30202 OH2          0.8710   -13.3070   -33.0690 O.3    3764  TIP3614    -0.4105
 30203 H1           1.4540   -12.8800   -32.4420 H      3764  TIP3614     0.2052
 30204 H2           0.0720   -13.4850   -32.5730 H      3764  TIP3614     0.2052
 30205 OH2          7.0050    31.2660    43.3010 O.3    3765  TIP3615    -0.4105
 30206 H1           6.4150    31.7080    42.6910 H      3765  TIP3615     0.2052
 30207 H2           7.2710    30.4690    42.8430 H      3765  TIP3615     0.2052
 30208 OH2          7.8390    -0.9540    -4.3020 O.3    3766  TIP3616    -0.4105
 30209 H1           8.2260    -0.0780    -4.2900 H      3766  TIP3616     0.2052
 30210 H2           7.3880    -1.0290    -3.4610 H      3766  TIP3616     0.2052
 30211 OH2        -27.3290    19.8260    31.4940 O.3    3767  TIP3617    -0.4105
 30212 H1         -26.3930    19.9220    31.6690 H      3767  TIP3617     0.2052
 30213 H2         -27.3710    19.2730    30.7130 H      3767  TIP3617     0.2052
 30214 OH2         -8.7010    19.8400   -50.7940 O.3    3768  TIP3618    -0.4105
 30215 H1          -9.6460    19.8990   -50.6540 H      3768  TIP3618     0.2052
 30216 H2          -8.3170    20.1970   -49.9940 H      3768  TIP3618     0.2052
 30217 OH2         30.6420   -15.5380    15.6820 O.3    3769  TIP3619    -0.4105
 30218 H1          29.9910   -15.3610    15.0030 H      3769  TIP3619     0.2052
 30219 H2          30.3420   -16.3460    16.0970 H      3769  TIP3619     0.2052
 30220 OH2        -30.4120     1.5100    19.0550 O.3    3770  TIP3620    -0.4105
 30221 H1         -29.7210     1.6450    18.4070 H      3770  TIP3620     0.2052
 30222 H2         -30.6060     2.3870    19.3850 H      3770  TIP3620     0.2052
 30223 OH2         28.0100   -18.7810    32.8660 O.3    3771  TIP3621    -0.4105
 30224 H1          28.9330   -18.9300    33.0670 H      3771  TIP3621     0.2052
 30225 H2          27.8410   -17.8860    33.1600 H      3771  TIP3621     0.2052
 30226 OH2        -15.0120    31.9280   -25.0200 O.3    3772  TIP3622    -0.4105
 30227 H1         -15.8280    31.5560   -24.6860 H      3772  TIP3622     0.2052
 30228 H2         -14.8510    32.6910   -24.4640 H      3772  TIP3622     0.2052
 30229 OH2         -5.5180    17.1570    42.5370 O.3    3773  TIP3623    -0.4105
 30230 H1          -5.5050    17.7100    43.3180 H      3773  TIP3623     0.2052
 30231 H2          -5.0100    17.6450    41.8890 H      3773  TIP3623     0.2052
 30232 OH2          4.3510   -13.1410    43.8500 O.3    3774  TIP3624    -0.4105
 30233 H1           3.6390   -13.7450    44.0600 H      3774  TIP3624     0.2052
 30234 H2           5.1480   -13.6260    44.0650 H      3774  TIP3624     0.2052
 30235 OH2         18.1330   -13.1190   -22.1870 O.3    3775  TIP3625    -0.4105
 30236 H1          18.1950   -12.1940   -22.4250 H      3775  TIP3625     0.2052
 30237 H2          17.9060   -13.1140   -21.2580 H      3775  TIP3625     0.2052
 30238 OH2         13.5200    26.2100   -45.5110 O.3    3776  TIP3626    -0.4105
 30239 H1          14.1860    26.5400   -44.9070 H      3776  TIP3626     0.2052
 30240 H2          13.4840    25.2690   -45.3360 H      3776  TIP3626     0.2052
 30241 OH2        -20.4660     7.7440   -25.2460 O.3    3777  TIP3627    -0.4105
 30242 H1         -19.6940     8.2580   -25.0090 H      3777  TIP3627     0.2052
 30243 H2         -20.1140     6.9810   -25.7050 H      3777  TIP3627     0.2052
 30244 OH2          3.0620    17.6940    40.0560 O.3    3778  TIP3628    -0.4105
 30245 H1           3.7480    17.1550    39.6630 H      3778  TIP3628     0.2052
 30246 H2           2.5750    18.0440    39.3100 H      3778  TIP3628     0.2052
 30247 OH2         27.0220    -0.3780    39.7790 O.3    3779  TIP3629    -0.4105
 30248 H1          26.8230    -1.2740    39.5090 H      3779  TIP3629     0.2052
 30249 H2          27.0630    -0.4180    40.7340 H      3779  TIP3629     0.2052
 30250 OH2        -29.3340   -29.3860    25.8740 O.3    3780  TIP3630    -0.4105
 30251 H1         -29.6500   -29.3670    26.7770 H      3780  TIP3630     0.2052
 30252 H2         -28.9940   -30.2730    25.7570 H      3780  TIP3630     0.2052
 30253 OH2         -0.2700    -3.9830   -26.9310 O.3    3781  TIP3631    -0.4105
 30254 H1          -1.0610    -3.7720   -27.4290 H      3781  TIP3631     0.2052
 30255 H2           0.1450    -4.6880   -27.4270 H      3781  TIP3631     0.2052
 30256 OH2          0.3180   -30.1750    35.6860 O.3    3782  TIP3632    -0.4105
 30257 H1          -0.1020   -30.6110    36.4280 H      3782  TIP3632     0.2052
 30258 H2           0.1080   -29.2490    35.8020 H      3782  TIP3632     0.2052
 30259 OH2         26.9570   -19.0800    35.9460 O.3    3783  TIP3633    -0.4105
 30260 H1          26.0030   -19.0970    35.8670 H      3783  TIP3633     0.2052
 30261 H2          27.2130   -20.0030    35.9600 H      3783  TIP3633     0.2052
 30262 OH2         32.4590   -28.4340    42.9960 O.3    3784  TIP3634    -0.4105
 30263 H1          33.3810   -28.6220    42.8160 H      3784  TIP3634     0.2052
 30264 H2          32.4700   -27.9530    43.8230 H      3784  TIP3634     0.2052
 30265 OH2         -5.1230   -25.1390   -42.0810 O.3    3785  TIP3635    -0.4105
 30266 H1          -4.2110   -24.8500   -42.1030 H      3785  TIP3635     0.2052
 30267 H2          -5.1050   -25.9540   -41.5790 H      3785  TIP3635     0.2052
 30268 OH2         16.0360   -18.0290   -20.0660 O.3    3786  TIP3636    -0.4105
 30269 H1          15.8130   -17.4850   -19.3110 H      3786  TIP3636     0.2052
 30270 H2          15.8850   -18.9260   -19.7680 H      3786  TIP3636     0.2052
 30271 OH2          4.4230     7.4100    55.0170 O.3    3787  TIP3637    -0.4105
 30272 H1           3.8940     7.6140    54.2460 H      3787  TIP3637     0.2052
 30273 H2           4.2680     8.1420    55.6140 H      3787  TIP3637     0.2052
 30274 OH2        -20.3490    -4.2200   -50.1740 O.3    3788  TIP3638    -0.4105
 30275 H1         -20.9390    -3.8020   -50.8010 H      3788  TIP3638     0.2052
 30276 H2         -19.5030    -4.2460   -50.6200 H      3788  TIP3638     0.2052
 30277 OH2        -27.3890   -16.1200    23.9750 O.3    3789  TIP3639    -0.4105
 30278 H1         -27.3920   -15.3730    23.3770 H      3789  TIP3639     0.2052
 30279 H2         -27.2450   -15.7350    24.8400 H      3789  TIP3639     0.2052
 30280 OH2         29.2610     3.7170    25.1790 O.3    3790  TIP3640    -0.4105
 30281 H1          29.4080     4.2270    24.3820 H      3790  TIP3640     0.2052
 30282 H2          28.8480     2.9090    24.8730 H      3790  TIP3640     0.2052
 30283 OH2         24.2740    32.4020   -49.1830 O.3    3791  TIP3641    -0.4105
 30284 H1          25.1010    31.9210   -49.1920 H      3791  TIP3641     0.2052
 30285 H2          23.7490    31.9660   -48.5110 H      3791  TIP3641     0.2052
 30286 OH2         14.4090    16.5550    48.2190 O.3    3792  TIP3642    -0.4105
 30287 H1          13.5080    16.4200    48.5140 H      3792  TIP3642     0.2052
 30288 H2          14.3900    16.3420    47.2860 H      3792  TIP3642     0.2052
 30289 OH2         -0.8610    16.5820   -48.1830 O.3    3793  TIP3643    -0.4105
 30290 H1          -1.5450    17.2220   -47.9860 H      3793  TIP3643     0.2052
 30291 H2          -1.3340    15.7650   -48.3370 H      3793  TIP3643     0.2052
 30292 OH2        -29.1030   -10.1660    34.4970 O.3    3794  TIP3644    -0.4105
 30293 H1         -28.9990   -11.0990    34.3130 H      3794  TIP3644     0.2052
 30294 H2         -29.6130    -9.8310    33.7590 H      3794  TIP3644     0.2052
 30295 OH2        -21.5530   -13.3740    43.3690 O.3    3795  TIP3645    -0.4105
 30296 H1         -21.4620   -14.3260    43.3260 H      3795  TIP3645     0.2052
 30297 H2         -21.1710   -13.0600    42.5500 H      3795  TIP3645     0.2052
 30298 OH2        -30.5290    28.4860   -40.8830 O.3    3796  TIP3646    -0.4105
 30299 H1         -29.7580    28.0630   -40.5060 H      3796  TIP3646     0.2052
 30300 H2         -30.1820    29.2500   -41.3450 H      3796  TIP3646     0.2052
 30301 OH2        -11.5460     8.9730   -51.1300 O.3    3797  TIP3647    -0.4105
 30302 H1         -12.3560     9.4550   -50.9610 H      3797  TIP3647     0.2052
 30303 H2         -11.2200     8.7400   -50.2600 H      3797  TIP3647     0.2052
 30304 OH2         13.5530    30.9780    30.9680 O.3    3798  TIP3648    -0.4105
 30305 H1          14.3180    30.8450    31.5280 H      3798  TIP3648     0.2052
 30306 H2          12.9430    30.2870    31.2270 H      3798  TIP3648     0.2052
 30307 OH2        -29.4600    17.4940   -43.0170 O.3    3799  TIP3649    -0.4105
 30308 H1         -30.2900    17.8720   -43.3080 H      3799  TIP3649     0.2052
 30309 H2         -29.2720    16.8080   -43.6560 H      3799  TIP3649     0.2052
 30310 OH2        -30.4990    12.5750   -24.0080 O.3    3800  TIP3650    -0.4105
 30311 H1         -30.4480    13.2880   -23.3720 H      3800  TIP3650     0.2052
 30312 H2         -29.5940    12.4410   -24.2910 H      3800  TIP3650     0.2052
 30313 OH2         -9.8730    15.0320    27.0000 O.3    3801  TIP3651    -0.4105
 30314 H1          -9.1510    15.5830    27.3030 H      3801  TIP3651     0.2052
 30315 H2         -10.5950    15.6430    26.8530 H      3801  TIP3651     0.2052
 30316 OH2         29.9300     7.3800    35.4920 O.3    3802  TIP3652    -0.4105
 30317 H1          30.0020     8.1140    36.1030 H      3802  TIP3652     0.2052
 30318 H2          29.5050     6.6880    35.9980 H      3802  TIP3652     0.2052
 30319 OH2         30.5990    -2.8750   -24.6230 O.3    3803  TIP3653    -0.4105
 30320 H1          30.9210    -1.9780   -24.7050 H      3803  TIP3653     0.2052
 30321 H2          31.3890    -3.4060   -24.5220 H      3803  TIP3653     0.2052
 30322 OH2         -9.5250   -21.1140    26.8610 O.3    3804  TIP3654    -0.4105
 30323 H1          -8.8340   -21.7750    26.9060 H      3804  TIP3654     0.2052
 30324 H2         -10.2760   -21.5220    27.2910 H      3804  TIP3654     0.2052
 30325 OH2         19.9100    -7.2200    43.4320 O.3    3805  TIP3655    -0.4105
 30326 H1          20.6600    -7.6800    43.0560 H      3805  TIP3655     0.2052
 30327 H2          19.1540    -7.5700    42.9600 H      3805  TIP3655     0.2052
 30328 OH2         13.9540    -7.6380    -5.9120 O.3    3806  TIP3656    -0.4105
 30329 H1          14.7260    -7.0840    -5.7930 H      3806  TIP3656     0.2052
 30330 H2          13.2410    -7.1460    -5.5050 H      3806  TIP3656     0.2052
 30331 OH2         10.9370     7.7400   -54.3280 O.3    3807  TIP3657    -0.4105
 30332 H1          10.7550     8.4110   -53.6690 H      3807  TIP3657     0.2052
 30333 H2          11.6590     7.2310   -53.9600 H      3807  TIP3657     0.2052
 30334 OH2         23.7980   -18.1620   -13.8760 O.3    3808  TIP3658    -0.4105
 30335 H1          23.1030   -18.1080   -14.5320 H      3808  TIP3658     0.2052
 30336 H2          24.4950   -18.6570   -14.3060 H      3808  TIP3658     0.2052
 30337 OH2         11.1350    21.5070    31.2240 O.3    3809  TIP3659    -0.4105
 30338 H1          11.4450    21.6990    32.1090 H      3809  TIP3659     0.2052
 30339 H2          11.7360    21.9830    30.6500 H      3809  TIP3659     0.2052
 30340 OH2         24.0410    29.0680    18.1490 O.3    3810  TIP3660    -0.4105
 30341 H1          23.9730    29.7330    18.8330 H      3810  TIP3660     0.2052
 30342 H2          23.7180    29.5020    17.3590 H      3810  TIP3660     0.2052
 30343 OH2         11.0040   -27.8780    27.5460 O.3    3811  TIP3661    -0.4105
 30344 H1          11.5210   -27.4340    28.2180 H      3811  TIP3661     0.2052
 30345 H2          11.3800   -28.7570    27.4970 H      3811  TIP3661     0.2052
 30346 OH2         27.1160    -4.2210   -21.1130 O.3    3812  TIP3662    -0.4105
 30347 H1          26.4380    -4.8830   -20.9710 H      3812  TIP3662     0.2052
 30348 H2          27.0070    -3.9570   -22.0260 H      3812  TIP3662     0.2052
 30349 OH2         24.1900   -32.0070   -41.9720 O.3    3813  TIP3663    -0.4105
 30350 H1          24.1470   -31.3650   -41.2630 H      3813  TIP3663     0.2052
 30351 H2          23.4660   -32.6080   -41.7960 H      3813  TIP3663     0.2052
 30352 OH2          6.2540    -4.0040    47.0600 O.3    3814  TIP3664    -0.4105
 30353 H1           6.9340    -4.0800    47.7290 H      3814  TIP3664     0.2052
 30354 H2           6.0920    -4.9040    46.7790 H      3814  TIP3664     0.2052
 30355 OH2        -20.3780   -16.6530   -26.5420 O.3    3815  TIP3665    -0.4105
 30356 H1         -20.1390   -15.7270   -26.5820 H      3815  TIP3665     0.2052
 30357 H2         -20.6540   -16.7910   -25.6360 H      3815  TIP3665     0.2052
 30358 OH2         -7.3380    16.8900   -31.7930 O.3    3816  TIP3666    -0.4105
 30359 H1          -7.4260    17.8410   -31.8470 H      3816  TIP3666     0.2052
 30360 H2          -8.2270    16.5750   -31.6310 H      3816  TIP3666     0.2052
 30361 OH2        -32.1910   -30.4830    38.6360 O.3    3817  TIP3667    -0.4105
 30362 H1         -32.0500   -29.6460    39.0780 H      3817  TIP3667     0.2052
 30363 H2         -31.4530   -30.5630    38.0320 H      3817  TIP3667     0.2052
 30364 OH2         -3.1930    30.0300    55.3630 O.3    3818  TIP3668    -0.4105
 30365 H1          -3.3560    29.4130    54.6500 H      3818  TIP3668     0.2052
 30366 H2          -2.7350    29.5140    56.0270 H      3818  TIP3668     0.2052
 30367 OH2         27.6570   -15.7500   -32.1010 O.3    3819  TIP3669    -0.4105
 30368 H1          28.2880   -15.0600   -31.8980 H      3819  TIP3669     0.2052
 30369 H2          28.0050   -16.1700   -32.8880 H      3819  TIP3669     0.2052
 30370 OH2         -2.8720    -4.6950   -31.2280 O.3    3820  TIP3670    -0.4105
 30371 H1          -3.0810    -5.3430   -30.5570 H      3820  TIP3670     0.2052
 30372 H2          -2.5270    -5.2080   -31.9590 H      3820  TIP3670     0.2052
 30373 OH2         12.5770    26.3750    37.9850 O.3    3821  TIP3671    -0.4105
 30374 H1          12.8130    25.7420    38.6630 H      3821  TIP3671     0.2052
 30375 H2          13.4110    26.7580    37.7130 H      3821  TIP3671     0.2052
 30376 OH2         -3.0180   -19.1950    27.2310 O.3    3822  TIP3672    -0.4105
 30377 H1          -3.9440   -19.0260    27.0600 H      3822  TIP3672     0.2052
 30378 H2          -2.9240   -19.0810    28.1770 H      3822  TIP3672     0.2052
 30379 OH2        -32.5920    32.3660   -26.4900 O.3    3823  TIP3673    -0.4105
 30380 H1         -33.3620    32.9070   -26.3140 H      3823  TIP3673     0.2052
 30381 H2         -32.0240    32.9230   -27.0220 H      3823  TIP3673     0.2052
 30382 OH2        -30.5470    32.5080    27.6450 O.3    3824  TIP3674    -0.4105
 30383 H1         -30.9160    33.3390    27.3460 H      3824  TIP3674     0.2052
 30384 H2         -30.2640    32.6810    28.5430 H      3824  TIP3674     0.2052
 30385 OH2        -31.8590    15.5280   -20.7490 O.3    3825  TIP3675    -0.4105
 30386 H1         -31.6520    14.5950   -20.7090 H      3825  TIP3675     0.2052
 30387 H2         -32.7310    15.5980   -20.3590 H      3825  TIP3675     0.2052
 30388 OH2         28.1140     4.5040    49.2510 O.3    3826  TIP3676    -0.4105
 30389 H1          28.1600     3.6660    48.7910 H      3826  TIP3676     0.2052
 30390 H2          27.5760     5.0590    48.6850 H      3826  TIP3676     0.2052
 30391 OH2          7.2950    -7.8590    30.6950 O.3    3827  TIP3677    -0.4105
 30392 H1           8.1230    -7.5620    30.3180 H      3827  TIP3677     0.2052
 30393 H2           7.5510    -8.4820    31.3750 H      3827  TIP3677     0.2052
 30394 OH2          7.2990    -2.0840    21.6700 O.3    3828  TIP3678    -0.4105
 30395 H1           6.6630    -2.3600    21.0100 H      3828  TIP3678     0.2052
 30396 H2           8.0720    -2.6220    21.4990 H      3828  TIP3678     0.2052
 30397 OH2         17.9540    17.4740    38.3860 O.3    3829  TIP3679    -0.4105
 30398 H1          17.6800    16.6120    38.0750 H      3829  TIP3679     0.2052
 30399 H2          18.8530    17.5680    38.0690 H      3829  TIP3679     0.2052
 30400 OH2         12.5340   -11.1810   -35.8150 O.3    3830  TIP3680    -0.4105
 30401 H1          12.4890   -11.9690   -36.3570 H      3830  TIP3680     0.2052
 30402 H2          12.0300   -10.5270   -36.2980 H      3830  TIP3680     0.2052
 30403 OH2         28.3470   -29.8640    36.1360 O.3    3831  TIP3681    -0.4105
 30404 H1          29.1870   -29.4320    36.2890 H      3831  TIP3681     0.2052
 30405 H2          28.5790   -30.7620    35.8990 H      3831  TIP3681     0.2052
 30406 OH2         28.2590     9.3540    46.3690 O.3    3832  TIP3682    -0.4105
 30407 H1          28.4390    10.2850    46.5010 H      3832  TIP3682     0.2052
 30408 H2          28.4490     9.2020    45.4430 H      3832  TIP3682     0.2052
 30409 OH2         -1.2850   -17.8830    42.1790 O.3    3833  TIP3683    -0.4105
 30410 H1          -0.5440   -17.9490    41.5760 H      3833  TIP3683     0.2052
 30411 H2          -1.7090   -18.7400    42.1320 H      3833  TIP3683     0.2052
 30412 OH2         32.2360    -2.3950    53.3640 O.3    3834  TIP3684    -0.4105
 30413 H1          31.5420    -2.9990    53.1000 H      3834  TIP3684     0.2052
 30414 H2          32.6180    -2.7940    54.1460 H      3834  TIP3684     0.2052
 30415 OH2        -20.8520    29.3900    52.4990 O.3    3835  TIP3685    -0.4105
 30416 H1         -21.2550    28.8590    51.8120 H      3835  TIP3685     0.2052
 30417 H2         -20.9300    30.2900    52.1830 H      3835  TIP3685     0.2052
 30418 OH2        -18.3610    25.6130    44.5980 O.3    3836  TIP3686    -0.4105
 30419 H1         -17.8130    26.2580    44.1510 H      3836  TIP3686     0.2052
 30420 H2         -17.7420    24.9760    44.9530 H      3836  TIP3686     0.2052
 30421 OH2         -9.3630    14.5170    53.9370 O.3    3837  TIP3687    -0.4105
 30422 H1          -9.9410    13.7530    53.9540 H      3837  TIP3687     0.2052
 30423 H2          -8.7090    14.3080    53.2710 H      3837  TIP3687     0.2052
 30424 OH2         24.4980     1.4630   -52.8540 O.3    3838  TIP3688    -0.4105
 30425 H1          23.9510     1.3510   -53.6310 H      3838  TIP3688     0.2052
 30426 H2          24.0100     1.0310   -52.1530 H      3838  TIP3688     0.2052
 30427 OH2         26.1400    -9.7960    48.9950 O.3    3839  TIP3689    -0.4105
 30428 H1          26.6810   -10.5630    49.1830 H      3839  TIP3689     0.2052
 30429 H2          25.2720   -10.1540    48.8080 H      3839  TIP3689     0.2052
 30430 OH2         12.0460    17.7020    52.2970 O.3    3840  TIP3690    -0.4105
 30431 H1          12.0720    17.0620    53.0080 H      3840  TIP3690     0.2052
 30432 H2          12.7060    17.3960    51.6750 H      3840  TIP3690     0.2052
 30433 OH2         -0.1990   -27.8380    53.8160 O.3    3841  TIP3691    -0.4105
 30434 H1          -0.1380   -27.0840    54.4020 H      3841  TIP3691     0.2052
 30435 H2           0.1570   -28.5670    54.3240 H      3841  TIP3691     0.2052
 30436 OH2        -32.0650    10.7470    29.6920 O.3    3842  TIP3692    -0.4105
 30437 H1         -31.6550     9.8860    29.6090 H      3842  TIP3692     0.2052
 30438 H2         -32.7450    10.6260    30.3550 H      3842  TIP3692     0.2052
 30439 OH2        -21.9120    10.5520    52.2400 O.3    3843  TIP3693    -0.4105
 30440 H1         -22.6110     9.9250    52.0580 H      3843  TIP3693     0.2052
 30441 H2         -22.1420    10.9270    53.0900 H      3843  TIP3693     0.2052
 30442 OH2        -10.1400   -26.3620    38.7700 O.3    3844  TIP3694    -0.4105
 30443 H1         -10.0190   -25.4600    39.0660 H      3844  TIP3694     0.2052
 30444 H2          -9.5140   -26.8700    39.2860 H      3844  TIP3694     0.2052
 30445 OH2        -31.7270    32.6340   -30.3700 O.3    3845  TIP3695    -0.4105
 30446 H1         -31.6220    32.0490   -31.1200 H      3845  TIP3695     0.2052
 30447 H2         -32.6690    32.6400   -30.2010 H      3845  TIP3695     0.2052
 30448 OH2         23.7960     1.7570    53.8700 O.3    3846  TIP3696    -0.4105
 30449 H1          23.7580     2.2600    54.6830 H      3846  TIP3696     0.2052
 30450 H2          24.4870     2.1780    53.3590 H      3846  TIP3696     0.2052
 30451 OH2         32.1240   -14.8440    31.3600 O.3    3847  TIP3697    -0.4105
 30452 H1          31.7450   -15.3810    30.6650 H      3847  TIP3697     0.2052
 30453 H2          31.9650   -15.3410    32.1620 H      3847  TIP3697     0.2052
 30454 OH2         -1.4420    31.9300   -38.3180 O.3    3848  TIP3698    -0.4105
 30455 H1          -0.6330    32.1840   -38.7610 H      3848  TIP3698     0.2052
 30456 H2          -1.9740    31.5250   -39.0030 H      3848  TIP3698     0.2052
 30457 OH2         26.6740    16.0480   -36.0650 O.3    3849  TIP3699    -0.4105
 30458 H1          26.9770    15.4990   -35.3420 H      3849  TIP3699     0.2052
 30459 H2          26.4710    15.4290   -36.7670 H      3849  TIP3699     0.2052
 30460 OH2          1.6510   -12.6400   -35.6780 O.3    3850  TIP3700    -0.4105
 30461 H1           1.1620   -13.2800   -36.1940 H      3850  TIP3700     0.2052
 30462 H2           1.2780   -12.7050   -34.7990 H      3850  TIP3700     0.2052
 30463 OH2         16.5330    28.5540   -26.5070 O.3    3851  TIP3701    -0.4105
 30464 H1          17.0480    28.1500   -25.8080 H      3851  TIP3701     0.2052
 30465 H2          17.1840    28.9440   -27.0900 H      3851  TIP3701     0.2052
 30466 OH2          1.0800   -24.9440   -19.6260 O.3    3852  TIP3702    -0.4105
 30467 H1           1.4580   -24.6300   -20.4470 H      3852  TIP3702     0.2052
 30468 H2           1.8330   -25.0740   -19.0490 H      3852  TIP3702     0.2052
 30469 OH2         -0.6930     2.1950   -35.8830 O.3    3853  TIP3703    -0.4105
 30470 H1          -0.5200     2.8840   -35.2420 H      3853  TIP3703     0.2052
 30471 H2          -1.2380     2.6160   -36.5480 H      3853  TIP3703     0.2052
 30472 OH2        -24.0730     2.0670    45.4100 O.3    3854  TIP3704    -0.4105
 30473 H1         -23.6140     2.6340    44.7900 H      3854  TIP3704     0.2052
 30474 H2         -24.5590     1.4540    44.8590 H      3854  TIP3704     0.2052
 30475 OH2         20.9600    29.5210    22.7880 O.3    3855  TIP3705    -0.4105
 30476 H1          21.0350    29.0230    21.9740 H      3855  TIP3705     0.2052
 30477 H2          21.3510    30.3710    22.5860 H      3855  TIP3705     0.2052
 30478 OH2         24.7190   -17.3440    37.8330 O.3    3856  TIP3706    -0.4105
 30479 H1          24.6960   -16.4000    37.6760 H      3856  TIP3706     0.2052
 30480 H2          23.9100   -17.6720    37.4420 H      3856  TIP3706     0.2052
 30481 OH2        -15.3730    12.9460    44.3720 O.3    3857  TIP3707    -0.4105
 30482 H1         -15.9910    12.4570    44.9140 H      3857  TIP3707     0.2052
 30483 H2         -14.6810    13.2120    44.9770 H      3857  TIP3707     0.2052
 30484 OH2          2.1100     3.1100   -48.2650 O.3    3858  TIP3708    -0.4105
 30485 H1           2.6110     3.7780   -47.7970 H      3858  TIP3708     0.2052
 30486 H2           1.3860     2.8960   -47.6770 H      3858  TIP3708     0.2052
 30487 OH2         -9.4590    12.0290    32.3920 O.3    3859  TIP3709    -0.4105
 30488 H1          -8.6740    12.2160    32.9070 H      3859  TIP3709     0.2052
 30489 H2          -9.4340    11.0820    32.2520 H      3859  TIP3709     0.2052
 30490 OH2        -26.5100    14.9560    26.1350 O.3    3860  TIP3710    -0.4105
 30491 H1         -25.5770    15.0890    26.3050 H      3860  TIP3710     0.2052
 30492 H2         -26.6530    14.0230    26.2960 H      3860  TIP3710     0.2052
 30493 OH2         23.0490     5.3680   -40.9540 O.3    3861  TIP3711    -0.4105
 30494 H1          23.6530     6.1070   -41.0230 H      3861  TIP3711     0.2052
 30495 H2          23.4210     4.6990   -41.5280 H      3861  TIP3711     0.2052
 30496 OH2         -9.8770     5.2070   -33.0810 O.3    3862  TIP3712    -0.4105
 30497 H1         -10.7530     5.1050   -32.7110 H      3862  TIP3712     0.2052
 30498 H2          -9.9010     4.7090   -33.8980 H      3862  TIP3712     0.2052
 30499 OH2        -12.5010    -7.6110   -54.0720 O.3    3863  TIP3713    -0.4105
 30500 H1         -12.1680    -7.3630   -54.9350 H      3863  TIP3713     0.2052
 30501 H2         -12.3240    -8.5500   -54.0070 H      3863  TIP3713     0.2052
 30502 OH2        -24.9560   -24.2580    52.6950 O.3    3864  TIP3714    -0.4105
 30503 H1         -24.3890   -24.4860    53.4320 H      3864  TIP3714     0.2052
 30504 H2         -25.7040   -24.8500    52.7760 H      3864  TIP3714     0.2052
 30505 OH2        -21.8690    32.0560    44.2860 O.3    3865  TIP3715    -0.4105
 30506 H1         -21.4240    32.2320    45.1140 H      3865  TIP3715     0.2052
 30507 H2         -22.5270    32.7480    44.2160 H      3865  TIP3715     0.2052
 30508 OH2        -28.3560    19.5890    25.3910 O.3    3866  TIP3716    -0.4105
 30509 H1         -28.2460    18.6990    25.0550 H      3866  TIP3716     0.2052
 30510 H2         -29.2950    19.6680    25.5600 H      3866  TIP3716     0.2052
 30511 OH2         30.1650    22.3530   -29.7340 O.3    3867  TIP3717    -0.4105
 30512 H1          30.1910    22.9190   -30.5060 H      3867  TIP3717     0.2052
 30513 H2          30.8780    21.7300   -29.8690 H      3867  TIP3717     0.2052
 30514 OH2        -22.2690     8.8240   -47.2110 O.3    3868  TIP3718    -0.4105
 30515 H1         -23.2020     8.8370   -46.9960 H      3868  TIP3718     0.2052
 30516 H2         -21.8340     8.6310   -46.3800 H      3868  TIP3718     0.2052
 30517 OH2         14.3720    11.1490   -19.5430 O.3    3869  TIP3719    -0.4105
 30518 H1          13.4550    10.9240   -19.3850 H      3869  TIP3719     0.2052
 30519 H2          14.8170    10.3050   -19.6170 H      3869  TIP3719     0.2052
 30520 OH2          3.8050     2.2160   -45.7490 O.3    3870  TIP3720    -0.4105
 30521 H1           4.6920     2.2000   -45.3900 H      3870  TIP3720     0.2052
 30522 H2           3.8560     1.6740   -46.5370 H      3870  TIP3720     0.2052
 30523 OH2         21.6130    -0.9810   -46.8900 O.3    3871  TIP3721    -0.4105
 30524 H1          22.0460    -1.7400   -47.2810 H      3871  TIP3721     0.2052
 30525 H2          21.6250    -1.1570   -45.9490 H      3871  TIP3721     0.2052
 30526 OH2          8.4680   -11.7360    54.0380 O.3    3872  TIP3722    -0.4105
 30527 H1           8.7500   -12.5000    53.5350 H      3872  TIP3722     0.2052
 30528 H2           8.1220   -11.1310    53.3830 H      3872  TIP3722     0.2052
 30529 OH2          7.8000     9.0020    46.0900 O.3    3873  TIP3723    -0.4105
 30530 H1           7.3590     8.1810    45.8710 H      3873  TIP3723     0.2052
 30531 H2           7.1980     9.4460    46.6860 H      3873  TIP3723     0.2052
 30532 OH2         22.4360     9.6190    30.6250 O.3    3874  TIP3724    -0.4105
 30533 H1          22.4180     9.1200    31.4420 H      3874  TIP3724     0.2052
 30534 H2          22.1080    10.4850    30.8660 H      3874  TIP3724     0.2052
 30535 OH2        -11.1100     6.8090    34.9740 O.3    3875  TIP3725    -0.4105
 30536 H1         -10.7170     7.5240    35.4750 H      3875  TIP3725     0.2052
 30537 H2         -10.3650     6.3540    34.5820 H      3875  TIP3725     0.2052
 30538 OH2         18.3940   -21.8380    44.6440 O.3    3876  TIP3726    -0.4105
 30539 H1          17.7060   -21.3620    45.1080 H      3876  TIP3726     0.2052
 30540 H2          18.5070   -22.6460    45.1450 H      3876  TIP3726     0.2052
 30541 OH2        -20.1770    21.4340   -55.4940 O.3    3877  TIP3727    -0.4105
 30542 H1         -20.3530    22.2950   -55.8730 H      3877  TIP3727     0.2052
 30543 H2         -19.7610    20.9410   -56.2000 H      3877  TIP3727     0.2052
 30544 OH2        -31.0290     3.8220    54.1080 O.3    3878  TIP3728    -0.4105
 30545 H1         -31.7220     4.1570    53.5390 H      3878  TIP3728     0.2052
 30546 H2         -30.4170     4.5520    54.1970 H      3878  TIP3728     0.2052
 30547 OH2          8.8940     0.4800   -41.1120 O.3    3879  TIP3729    -0.4105
 30548 H1           9.4770     1.0700   -40.6350 H      3879  TIP3729     0.2052
 30549 H2           9.0040    -0.3670   -40.6800 H      3879  TIP3729     0.2052
 30550 OH2         10.9250     1.3630   -39.0940 O.3    3880  TIP3730    -0.4105
 30551 H1          11.6180     1.8300   -39.5610 H      3880  TIP3730     0.2052
 30552 H2          11.3740     0.6370   -38.6600 H      3880  TIP3730     0.2052
 30553 OH2         -0.4900   -16.6060    29.2340 O.3    3881  TIP3731    -0.4105
 30554 H1          -0.2450   -17.4820    29.5300 H      3881  TIP3731     0.2052
 30555 H2           0.1170   -16.4160    28.5180 H      3881  TIP3731     0.2052
 30556 OH2        -31.3640   -29.4230    16.1920 O.3    3882  TIP3732    -0.4105
 30557 H1         -31.2680   -29.1760    17.1120 H      3882  TIP3732     0.2052
 30558 H2         -31.1360   -28.6310    15.7060 H      3882  TIP3732     0.2052
 30559 OH2         -3.8950   -22.3470    52.7220 O.3    3883  TIP3733    -0.4105
 30560 H1          -3.0820   -21.9910    52.3620 H      3883  TIP3733     0.2052
 30561 H2          -4.5670   -22.0980    52.0880 H      3883  TIP3733     0.2052
 30562 OH2        -30.0510   -21.0730    20.4010 O.3    3884  TIP3734    -0.4105
 30563 H1         -30.4750   -20.6740    19.6410 H      3884  TIP3734     0.2052
 30564 H2         -29.1270   -21.1300    20.1580 H      3884  TIP3734     0.2052
 30565 OH2         19.7130    -1.2830    51.0960 O.3    3885  TIP3735    -0.4105
 30566 H1          19.8960    -0.3520    50.9660 H      3885  TIP3735     0.2052
 30567 H2          20.5480    -1.7180    50.9270 H      3885  TIP3735     0.2052
 30568 OH2         -2.2720     0.5180   -49.2490 O.3    3886  TIP3736    -0.4105
 30569 H1          -1.5360    -0.0880   -49.1650 H      3886  TIP3736     0.2052
 30570 H2          -1.8960     1.2980   -49.6580 H      3886  TIP3736     0.2052
 30571 OH2         -5.8050   -10.2900   -34.4940 O.3    3887  TIP3737    -0.4105
 30572 H1          -4.8860   -10.0750   -34.6490 H      3887  TIP3737     0.2052
 30573 H2          -6.1180    -9.5970   -33.9120 H      3887  TIP3737     0.2052
 30574 OH2         21.5550   -22.0840   -36.9070 O.3    3888  TIP3738    -0.4105
 30575 H1          21.7250   -21.6860   -36.0540 H      3888  TIP3738     0.2052
 30576 H2          20.6540   -21.8330   -37.1140 H      3888  TIP3738     0.2052
 30577 OH2        -27.6260    10.8230   -46.9210 O.3    3889  TIP3739    -0.4105
 30578 H1         -27.4040     9.9440   -46.6120 H      3889  TIP3739     0.2052
 30579 H2         -28.5260    10.7440   -47.2390 H      3889  TIP3739     0.2052
 30580 OH2         28.8970    15.1150    42.8220 O.3    3890  TIP3740    -0.4105
 30581 H1          28.1790    15.4430    43.3630 H      3890  TIP3740     0.2052
 30582 H2          29.0760    14.2400    43.1650 H      3890  TIP3740     0.2052
 30583 OH2        -24.2580     7.8700   -45.1860 O.3    3891  TIP3741    -0.4105
 30584 H1         -25.0410     8.3300   -45.4900 H      3891  TIP3741     0.2052
 30585 H2         -24.1050     8.2130   -44.3060 H      3891  TIP3741     0.2052
 30586 OH2         20.5080    16.5630   -20.5670 O.3    3892  TIP3742    -0.4105
 30587 H1          21.1860    16.6710   -19.8990 H      3892  TIP3742     0.2052
 30588 H2          19.7180    16.3470   -20.0730 H      3892  TIP3742     0.2052
 30589 OH2        -22.6970    -3.1100   -48.7580 O.3    3893  TIP3743    -0.4105
 30590 H1         -22.0960    -3.7260   -48.3380 H      3893  TIP3743     0.2052
 30591 H2         -22.6350    -3.3120   -49.6910 H      3893  TIP3743     0.2052
 30592 OH2          4.5570    14.8730   -30.6090 O.3    3894  TIP3744    -0.4105
 30593 H1           4.7170    15.2660   -31.4670 H      3894  TIP3744     0.2052
 30594 H2           3.6100    14.9420   -30.4860 H      3894  TIP3744     0.2052
 30595 OH2         -6.1360    15.3010   -18.6970 O.3    3895  TIP3745    -0.4105
 30596 H1          -6.9930    15.0790   -19.0610 H      3895  TIP3745     0.2052
 30597 H2          -6.2220    15.1320   -17.7590 H      3895  TIP3745     0.2052
 30598 OH2        -32.4320   -12.2150    38.6530 O.3    3896  TIP3746    -0.4105
 30599 H1         -31.6410   -11.7610    38.9430 H      3896  TIP3746     0.2052
 30600 H2         -32.3130   -13.1170    38.9480 H      3896  TIP3746     0.2052
 30601 OH2        -21.6830   -30.5840    35.0000 O.3    3897  TIP3747    -0.4105
 30602 H1         -20.7660   -30.7310    35.2330 H      3897  TIP3747     0.2052
 30603 H2         -21.8790   -29.7100    35.3390 H      3897  TIP3747     0.2052
 30604 OH2        -28.4780    10.5650    20.1320 O.3    3898  TIP3748    -0.4105
 30605 H1         -27.7750    10.9340    19.5980 H      3898  TIP3748     0.2052
 30606 H2         -29.1210    10.2480    19.4970 H      3898  TIP3748     0.2052
 30607 OH2         -8.2860    22.9200    42.1730 O.3    3899  TIP3749    -0.4105
 30608 H1          -7.9960    23.1010    43.0670 H      3899  TIP3749     0.2052
 30609 H2          -8.2340    23.7650    41.7280 H      3899  TIP3749     0.2052
 30610 OH2         -2.5550   -31.3640   -34.4850 O.3    3900  TIP3750    -0.4105
 30611 H1          -1.6300   -31.5640   -34.3420 H      3900  TIP3750     0.2052
 30612 H2          -3.0200   -31.9120   -33.8540 H      3900  TIP3750     0.2052
 30613 OH2        -32.0320     5.7350    48.5010 O.3    3901  TIP3751    -0.4105
 30614 H1         -31.4940     6.3490    48.0000 H      3901  TIP3751     0.2052
 30615 H2         -32.9220     5.8800    48.1810 H      3901  TIP3751     0.2052
 30616 OH2        -21.6920   -14.7590   -48.5140 O.3    3902  TIP3752    -0.4105
 30617 H1         -21.0910   -14.9790   -49.2260 H      3902  TIP3752     0.2052
 30618 H2         -21.1470   -14.7770   -47.7270 H      3902  TIP3752     0.2052
 30619 OH2          3.3590    15.2710   -35.7780 O.3    3903  TIP3753    -0.4105
 30620 H1           3.0430    14.6030   -36.3860 H      3903  TIP3753     0.2052
 30621 H2           3.4360    16.0630   -36.3110 H      3903  TIP3753     0.2052
 30622 OH2         10.9880   -18.4920   -27.1570 O.3    3904  TIP3754    -0.4105
 30623 H1          10.7990   -18.0330   -27.9750 H      3904  TIP3754     0.2052
 30624 H2          11.9400   -18.5930   -27.1520 H      3904  TIP3754     0.2052
 30625 OH2         -1.4400     1.5570   -53.7120 O.3    3905  TIP3755    -0.4105
 30626 H1          -1.8520     1.6920   -54.5650 H      3905  TIP3755     0.2052
 30627 H2          -1.7380     0.6900   -53.4360 H      3905  TIP3755     0.2052
 30628 OH2         28.8520    18.4490    36.2040 O.3    3906  TIP3756    -0.4105
 30629 H1          28.5330    18.9160    36.9770 H      3906  TIP3756     0.2052
 30630 H2          29.1580    17.6080    36.5420 H      3906  TIP3756     0.2052
 30631 OH2        -22.9500    23.2920    37.9710 O.3    3907  TIP3757    -0.4105
 30632 H1         -22.3480    23.3640    38.7120 H      3907  TIP3757     0.2052
 30633 H2         -23.7170    22.8440    38.3280 H      3907  TIP3757     0.2052
 30634 OH2        -24.5090     1.4540    40.5960 O.3    3908  TIP3758    -0.4105
 30635 H1         -24.8910     1.0270    39.8300 H      3908  TIP3758     0.2052
 30636 H2         -24.8440     0.9560    41.3410 H      3908  TIP3758     0.2052
 30637 OH2        -30.7300    27.8180    50.4330 O.3    3909  TIP3759    -0.4105
 30638 H1         -31.1410    28.2860    49.7070 H      3909  TIP3759     0.2052
 30639 H2         -31.2070    28.1130    51.2090 H      3909  TIP3759     0.2052
 30640 OH2        -31.7290    -6.0390   -47.4060 O.3    3910  TIP3760    -0.4105
 30641 H1         -31.5340    -6.7850   -47.9740 H      3910  TIP3760     0.2052
 30642 H2         -31.1380    -6.1450   -46.6610 H      3910  TIP3760     0.2052
 30643 OH2        -30.9400    23.4930   -18.7980 O.3    3911  TIP3761    -0.4105
 30644 H1         -30.5210    22.6340   -18.7540 H      3911  TIP3761     0.2052
 30645 H2         -30.2130    24.1160   -18.7800 H      3911  TIP3761     0.2052
 30646 OH2        -14.2960   -33.0440    35.4110 O.3    3912  TIP3762    -0.4105
 30647 H1         -14.1770   -32.6520    36.2770 H      3912  TIP3762     0.2052
 30648 H2         -14.3660   -33.9830    35.5810 H      3912  TIP3762     0.2052
 30649 OH2         25.8830    11.4620   -37.7140 O.3    3913  TIP3763    -0.4105
 30650 H1          25.4090    10.9530   -38.3720 H      3913  TIP3763     0.2052
 30651 H2          26.7930    11.1790   -37.8030 H      3913  TIP3763     0.2052
 30652 OH2         29.5880   -31.3480   -44.7270 O.3    3914  TIP3764    -0.4105
 30653 H1          29.1240   -32.0210   -45.2240 H      3914  TIP3764     0.2052
 30654 H2          30.2850   -31.0530   -45.3140 H      3914  TIP3764     0.2052
 30655 OH2         30.8370   -22.9980   -53.0060 O.3    3915  TIP3765    -0.4105
 30656 H1          31.7030   -23.3020   -52.7360 H      3915  TIP3765     0.2052
 30657 H2          30.9360   -22.7830   -53.9330 H      3915  TIP3765     0.2052
 30658 OH2         17.2020    23.3960    49.7320 O.3    3916  TIP3766    -0.4105
 30659 H1          16.4480    22.8450    49.5210 H      3916  TIP3766     0.2052
 30660 H2          17.2910    23.9790    48.9770 H      3916  TIP3766     0.2052
 30661 OH2        -29.9610    26.8330    38.1890 O.3    3917  TIP3767    -0.4105
 30662 H1         -30.1080    27.5870    37.6170 H      3917  TIP3767     0.2052
 30663 H2         -30.6960    26.2480    38.0080 H      3917  TIP3767     0.2052
 30664 OH2        -20.4970    11.6270   -43.4410 O.3    3918  TIP3768    -0.4105
 30665 H1         -19.9060    11.4680   -42.7050 H      3918  TIP3768     0.2052
 30666 H2         -20.8450    12.5050   -43.2850 H      3918  TIP3768     0.2052
 30667 OH2        -15.6660     7.8590    28.6410 O.3    3919  TIP3769    -0.4105
 30668 H1         -15.7940     7.0730    29.1720 H      3919  TIP3769     0.2052
 30669 H2         -16.5290     8.0410    28.2690 H      3919  TIP3769     0.2052
 30670 OH2        -13.2750    15.3960   -16.0870 O.3    3920  TIP3770    -0.4105
 30671 H1         -12.4710    15.0790   -15.6770 H      3920  TIP3770     0.2052
 30672 H2         -12.9770    15.9110   -16.8360 H      3920  TIP3770     0.2052
 30673 OH2          8.3580    27.3960    26.3110 O.3    3921  TIP3771    -0.4105
 30674 H1           8.1030    28.2460    25.9530 H      3921  TIP3771     0.2052
 30675 H2           8.5260    27.5670    27.2380 H      3921  TIP3771     0.2052
 30676 OH2         10.5170    30.4990    49.6400 O.3    3922  TIP3772    -0.4105
 30677 H1          10.9540    30.1610    48.8580 H      3922  TIP3772     0.2052
 30678 H2           9.7980    31.0330    49.3020 H      3922  TIP3772     0.2052
 30679 OH2        -24.4410    25.5950   -32.0940 O.3    3923  TIP3773    -0.4105
 30680 H1         -23.9630    25.7730   -31.2850 H      3923  TIP3773     0.2052
 30681 H2         -24.9920    24.8400   -31.8870 H      3923  TIP3773     0.2052
 30682 OH2         -8.3800    32.1400   -19.2000 O.3    3924  TIP3774    -0.4105
 30683 H1          -7.6750    32.7800   -19.2950 H      3924  TIP3774     0.2052
 30684 H2          -7.9760    31.3030   -19.4270 H      3924  TIP3774     0.2052
 30685 OH2          4.3930     4.3170    53.3300 O.3    3925  TIP3775    -0.4105
 30686 H1           4.8490     4.7060    52.5830 H      3925  TIP3775     0.2052
 30687 H2           5.0880     3.9170    53.8530 H      3925  TIP3775     0.2052
 30688 OH2          2.8620    -9.3240   -47.9020 O.3    3926  TIP3776    -0.4105
 30689 H1           2.5410    -9.1990   -48.7960 H      3926  TIP3776     0.2052
 30690 H2           2.9110    -8.4390   -47.5390 H      3926  TIP3776     0.2052
 30691 OH2         32.2800     4.2500    46.5580 O.3    3927  TIP3777    -0.4105
 30692 H1          32.1720     5.1460    46.8770 H      3927  TIP3777     0.2052
 30693 H2          31.9840     3.7000    47.2830 H      3927  TIP3777     0.2052
 30694 OH2         26.0330    14.2030   -47.4310 O.3    3928  TIP3778    -0.4105
 30695 H1          26.5480    14.7550   -46.8430 H      3928  TIP3778     0.2052
 30696 H2          26.6460    13.5310   -47.7290 H      3928  TIP3778     0.2052
 30697 OH2         10.5680    20.1810   -18.7070 O.3    3929  TIP3779    -0.4105
 30698 H1          11.3360    20.6680   -19.0050 H      3929  TIP3779     0.2052
 30699 H2          10.9280    19.3960   -18.2940 H      3929  TIP3779     0.2052
 30700 OH2        -18.4280   -17.8650   -31.1220 O.3    3930  TIP3780    -0.4105
 30701 H1         -18.8690   -18.0500   -30.2930 H      3930  TIP3780     0.2052
 30702 H2         -18.9960   -17.2310   -31.5600 H      3930  TIP3780     0.2052
 30703 OH2        -10.8660    -8.0050    49.8910 O.3    3931  TIP3781    -0.4105
 30704 H1         -11.3750    -7.2890    50.2710 H      3931  TIP3781     0.2052
 30705 H2         -10.0850    -7.5820    49.5350 H      3931  TIP3781     0.2052
 30706 OH2         18.2410   -17.6080    32.0680 O.3    3932  TIP3782    -0.4105
 30707 H1          18.2850   -18.5500    31.9060 H      3932  TIP3782     0.2052
 30708 H2          19.0830   -17.3950    32.4720 H      3932  TIP3782     0.2052
 30709 OH2         31.3140    31.6260   -39.6130 O.3    3933  TIP3783    -0.4105
 30710 H1          31.4840    30.9500   -40.2690 H      3933  TIP3783     0.2052
 30711 H2          30.6440    31.2460   -39.0450 H      3933  TIP3783     0.2052
 30712 OH2         32.7540     2.9020   -14.9060 O.3    3934  TIP3784    -0.4105
 30713 H1          33.5350     3.4320   -15.0670 H      3934  TIP3784     0.2052
 30714 H2          32.0460     3.5400   -14.8120 H      3934  TIP3784     0.2052
 30715 OH2          7.3220     5.8530   -45.2560 O.3    3935  TIP3785    -0.4105
 30716 H1           7.1070     5.4470   -46.0960 H      3935  TIP3785     0.2052
 30717 H2           7.0470     5.2110   -44.6020 H      3935  TIP3785     0.2052
 30718 OH2         23.4020    33.0280    55.2850 O.3    3936  TIP3786    -0.4105
 30719 H1          22.6220    33.5510    55.4740 H      3936  TIP3786     0.2052
 30720 H2          23.3900    32.9150    54.3340 H      3936  TIP3786     0.2052
 30721 OH2         25.0710   -23.2650    55.5020 O.3    3937  TIP3787    -0.4105
 30722 H1          25.0580   -24.2070    55.6750 H      3937  TIP3787     0.2052
 30723 H2          25.1630   -23.1970    54.5520 H      3937  TIP3787     0.2052
 30724 OH2        -26.7480    25.9060   -39.3160 O.3    3938  TIP3788    -0.4105
 30725 H1         -27.3820    25.4220   -38.7870 H      3938  TIP3788     0.2052
 30726 H2         -26.5630    25.3270   -40.0560 H      3938  TIP3788     0.2052
 30727 OH2         24.6100     9.5110   -39.3830 O.3    3939  TIP3789    -0.4105
 30728 H1          25.0100     9.8010   -40.2030 H      3939  TIP3789     0.2052
 30729 H2          23.8400    10.0700   -39.2810 H      3939  TIP3789     0.2052
 30730 OH2         -6.6660   -11.7610   -36.8880 O.3    3940  TIP3790    -0.4105
 30731 H1          -5.8730   -11.4640   -37.3360 H      3940  TIP3790     0.2052
 30732 H2          -6.5810   -11.4190   -35.9980 H      3940  TIP3790     0.2052
 30733 OH2        -21.8450    28.6720    50.0680 O.3    3941  TIP3791    -0.4105
 30734 H1         -22.3250    29.4960    49.9870 H      3941  TIP3791     0.2052
 30735 H2         -22.5140    27.9950    49.9680 H      3941  TIP3791     0.2052
 30736 OH2          2.2780    -8.4740    55.0690 O.3    3942  TIP3792    -0.4105
 30737 H1           2.0650    -8.3190    54.1490 H      3942  TIP3792     0.2052
 30738 H2           2.1640    -9.4170    55.1870 H      3942  TIP3792     0.2052
 30739 OH2         15.2410    21.0810    42.7950 O.3    3943  TIP3793    -0.4105
 30740 H1          14.4270    20.5970    42.9350 H      3943  TIP3793     0.2052
 30741 H2          15.0770    21.9430    43.1780 H      3943  TIP3793     0.2052
 30742 OH2         14.6260   -23.4690   -48.7500 O.3    3944  TIP3794    -0.4105
 30743 H1          13.9530   -24.1450   -48.6660 H      3944  TIP3794     0.2052
 30744 H2          14.7760   -23.1670   -47.8540 H      3944  TIP3794     0.2052
 30745 OH2        -20.2330     5.3830   -54.5850 O.3    3945  TIP3795    -0.4105
 30746 H1         -19.8750     4.6370   -55.0650 H      3945  TIP3795     0.2052
 30747 H2         -19.6620     5.4750   -53.8220 H      3945  TIP3795     0.2052
 30748 OH2        -32.4420   -11.4840   -44.2200 O.3    3946  TIP3796    -0.4105
 30749 H1         -32.5130   -11.8340   -45.1080 H      3946  TIP3796     0.2052
 30750 H2         -31.8180   -12.0620   -43.7830 H      3946  TIP3796     0.2052
 30751 OH2         12.3440   -29.9910    51.4810 O.3    3947  TIP3797    -0.4105
 30752 H1          11.8840   -30.3340    52.2470 H      3947  TIP3797     0.2052
 30753 H2          12.9860   -30.6680    51.2640 H      3947  TIP3797     0.2052
 30754 OH2         -9.3050   -13.6090    37.8110 O.3    3948  TIP3798    -0.4105
 30755 H1          -8.5310   -13.8810    37.3180 H      3948  TIP3798     0.2052
 30756 H2          -8.9560   -13.2470    38.6250 H      3948  TIP3798     0.2052
 30757 OH2          6.9570    22.0500    46.4060 O.3    3949  TIP3799    -0.4105
 30758 H1           7.7960    22.3530    46.0600 H      3949  TIP3799     0.2052
 30759 H2           6.9830    21.0990    46.3000 H      3949  TIP3799     0.2052
 30760 OH2         17.4250   -16.5640   -31.2370 O.3    3950  TIP3800    -0.4105
 30761 H1          16.9230   -15.8440   -31.6190 H      3950  TIP3800     0.2052
 30762 H2          17.1750   -17.3310   -31.7530 H      3950  TIP3800     0.2052
 30763 OH2        -27.9550    -3.2760   -31.4730 O.3    3951  TIP3801    -0.4105
 30764 H1         -27.4470    -2.8820   -30.7640 H      3951  TIP3801     0.2052
 30765 H2         -27.5040    -4.0990   -31.6630 H      3951  TIP3801     0.2052
 30766 OH2         21.2050   -11.0980    46.9250 O.3    3952  TIP3802    -0.4105
 30767 H1          21.3200   -10.4160    47.5870 H      3952  TIP3802     0.2052
 30768 H2          20.8930   -11.8590    47.4160 H      3952  TIP3802     0.2052
 30769 OH2        -17.7980   -28.6970   -20.0950 O.3    3953  TIP3803    -0.4105
 30770 H1         -16.9700   -28.4640   -19.6760 H      3953  TIP3803     0.2052
 30771 H2         -18.3850   -28.9050   -19.3680 H      3953  TIP3803     0.2052
 30772 OH2          5.3960   -25.8060    33.0710 O.3    3954  TIP3804    -0.4105
 30773 H1           4.5230   -25.8360    32.6810 H      3954  TIP3804     0.2052
 30774 H2           5.6240   -26.7240    33.2190 H      3954  TIP3804     0.2052
 30775 OH2         31.4990    17.9540   -39.9190 O.3    3955  TIP3805    -0.4105
 30776 H1          31.5960    18.8870   -39.7280 H      3955  TIP3805     0.2052
 30777 H2          30.7680    17.6720   -39.3700 H      3955  TIP3805     0.2052
 30778 OH2         16.3530    -9.0630    26.0090 O.3    3956  TIP3806    -0.4105
 30779 H1          15.9640    -9.8580    26.3730 H      3956  TIP3806     0.2052
 30780 H2          16.3880    -8.4540    26.7460 H      3956  TIP3806     0.2052
 30781 OH2         16.9640    15.7550    36.4040 O.3    3957  TIP3807    -0.4105
 30782 H1          17.3970    14.9780    36.7570 H      3957  TIP3807     0.2052
 30783 H2          16.1130    15.4390    36.1030 H      3957  TIP3807     0.2052
 30784 OH2          9.1340   -14.9860    42.5900 O.3    3958  TIP3808    -0.4105
 30785 H1           9.9060   -15.1800    42.0590 H      3958  TIP3808     0.2052
 30786 H2           8.6150   -14.3890    42.0490 H      3958  TIP3808     0.2052
 30787 OH2          3.8720   -26.4420    37.5110 O.3    3959  TIP3809    -0.4105
 30788 H1           3.6650   -27.0120    36.7700 H      3959  TIP3809     0.2052
 30789 H2           4.0800   -25.5970    37.1130 H      3959  TIP3809     0.2052
 30790 OH2         12.6420    29.7400    43.2200 O.3    3960  TIP3810    -0.4105
 30791 H1          12.7480    30.5180    42.6740 H      3960  TIP3810     0.2052
 30792 H2          12.5000    29.0270    42.5970 H      3960  TIP3810     0.2052
 30793 OH2        -18.9200   -30.8430    35.8990 O.3    3961  TIP3811    -0.4105
 30794 H1         -18.2470   -30.9420    36.5730 H      3961  TIP3811     0.2052
 30795 H2         -18.4510   -30.4890    35.1430 H      3961  TIP3811     0.2052
 30796 OH2         10.1260    -9.9690    49.5610 O.3    3962  TIP3812    -0.4105
 30797 H1           9.6070    -9.4150    48.9780 H      3962  TIP3812     0.2052
 30798 H2          10.9390    -9.4830    49.6950 H      3962  TIP3812     0.2052
 30799 OH2          5.7710    14.4160   -25.3260 O.3    3963  TIP3813    -0.4105
 30800 H1           5.6270    14.6690   -26.2380 H      3963  TIP3813     0.2052
 30801 H2           5.4310    15.1520   -24.8170 H      3963  TIP3813     0.2052
 30802 OH2          8.2840     6.8690   -49.7870 O.3    3964  TIP3814    -0.4105
 30803 H1           8.6170     5.9760   -49.7040 H      3964  TIP3814     0.2052
 30804 H2           9.0670     7.4060   -49.9150 H      3964  TIP3814     0.2052
 30805 OH2          2.7960    -6.3740    46.6670 O.3    3965  TIP3815    -0.4105
 30806 H1           2.7300    -7.0220    47.3690 H      3965  TIP3815     0.2052
 30807 H2           3.6910    -6.4630    46.3410 H      3965  TIP3815     0.2052
 30808 OH2         25.7760    -0.3890   -11.2150 O.3    3966  TIP3816    -0.4105
 30809 H1          26.6970    -0.1480   -11.1220 H      3966  TIP3816     0.2052
 30810 H2          25.3030     0.4410   -11.1540 H      3966  TIP3816     0.2052
 30811 OH2         -7.7890    20.0380    24.9260 O.3    3967  TIP3817    -0.4105
 30812 H1          -7.1500    19.8260    24.2460 H      3967  TIP3817     0.2052
 30813 H2          -7.8260    20.9940    24.9320 H      3967  TIP3817     0.2052
 30814 OH2          8.6090   -28.6200    36.5320 O.3    3968  TIP3818    -0.4105
 30815 H1           9.2870   -28.2670    35.9560 H      3968  TIP3818     0.2052
 30816 H2           8.0830   -29.1830    35.9660 H      3968  TIP3818     0.2052
 30817 OH2        -19.2310    26.9730   -28.7860 O.3    3969  TIP3819    -0.4105
 30818 H1         -19.6200    26.4340   -29.4750 H      3969  TIP3819     0.2052
 30819 H2         -19.3140    26.4450   -27.9920 H      3969  TIP3819     0.2052
 30820 OH2        -30.7400    -3.9490    48.8600 O.3    3970  TIP3820    -0.4105
 30821 H1         -31.1490    -3.1060    49.0600 H      3970  TIP3820     0.2052
 30822 H2         -31.2560    -4.2990    48.1330 H      3970  TIP3820     0.2052
 30823 OH2        -32.2680    25.0520    23.4230 O.3    3971  TIP3821    -0.4105
 30824 H1         -31.6990    24.6450    22.7700 H      3971  TIP3821     0.2052
 30825 H2         -33.1200    25.1160    22.9930 H      3971  TIP3821     0.2052
 30826 OH2        -18.3770   -18.9870    29.7800 O.3    3972  TIP3822    -0.4105
 30827 H1         -18.1420   -18.9990    30.7080 H      3972  TIP3822     0.2052
 30828 H2         -19.1040   -19.6060    29.7090 H      3972  TIP3822     0.2052
 30829 OH2         32.3970     7.9550   -50.3760 O.3    3973  TIP3823    -0.4105
 30830 H1          32.5380     7.7180   -51.2920 H      3973  TIP3823     0.2052
 30831 H2          31.5260     7.6140   -50.1720 H      3973  TIP3823     0.2052
 30832 OH2         16.5160    -9.9890   -30.2200 O.3    3974  TIP3824    -0.4105
 30833 H1          16.3010    -9.5480   -31.0420 H      3974  TIP3824     0.2052
 30834 H2          15.7060    -9.9590   -29.7110 H      3974  TIP3824     0.2052
 30835 OH2         25.0940   -26.3900   -46.4000 O.3    3975  TIP3825    -0.4105
 30836 H1          25.4370   -25.6210   -45.9450 H      3975  TIP3825     0.2052
 30837 H2          24.6810   -26.9120   -45.7120 H      3975  TIP3825     0.2052
 30838 OH2         -8.4030    19.4610    43.7270 O.3    3976  TIP3826    -0.4105
 30839 H1          -7.6680    19.7710    44.2560 H      3976  TIP3826     0.2052
 30840 H2          -8.4740    18.5300    43.9380 H      3976  TIP3826     0.2052
 30841 OH2        -31.9460    25.0090    48.5930 O.3    3977  TIP3827    -0.4105
 30842 H1         -31.2170    25.6100    48.4410 H      3977  TIP3827     0.2052
 30843 H2         -31.9020    24.3900    47.8640 H      3977  TIP3827     0.2052
 30844 OH2         25.1640     0.8680   -15.8080 O.3    3978  TIP3828    -0.4105
 30845 H1          26.0710     1.0250   -16.0690 H      3978  TIP3828     0.2052
 30846 H2          24.7090     1.6840   -16.0170 H      3978  TIP3828     0.2052
 30847 OH2        -20.3400    15.5210   -45.1680 O.3    3979  TIP3829    -0.4105
 30848 H1         -21.2740    15.6490   -45.3330 H      3979  TIP3829     0.2052
 30849 H2         -19.9940    16.4050   -45.0450 H      3979  TIP3829     0.2052
 30850 OH2        -12.5060     8.9520   -35.5540 O.3    3980  TIP3830    -0.4105
 30851 H1         -12.5420     9.5740   -34.8280 H      3980  TIP3830     0.2052
 30852 H2         -12.3610     9.4960   -36.3290 H      3980  TIP3830     0.2052
 30853 OH2         20.7660     3.0870   -40.9180 O.3    3981  TIP3831    -0.4105
 30854 H1          21.3130     3.8720   -40.9570 H      3981  TIP3831     0.2052
 30855 H2          21.0640     2.5510   -41.6540 H      3981  TIP3831     0.2052
 30856 OH2        -17.9760    -2.9160    43.9950 O.3    3982  TIP3832    -0.4105
 30857 H1         -17.7730    -3.4590    44.7560 H      3982  TIP3832     0.2052
 30858 H2         -18.5790    -3.4470    43.4750 H      3982  TIP3832     0.2052
 30859 OH2          8.7050     8.1800    40.8770 O.3    3983  TIP3833    -0.4105
 30860 H1           8.9020     7.2810    40.6110 H      3983  TIP3833     0.2052
 30861 H2           7.8660     8.3750    40.4590 H      3983  TIP3833     0.2052
 30862 OH2         25.1400    22.1770    30.9860 O.3    3984  TIP3834    -0.4105
 30863 H1          24.5200    21.5600    31.3740 H      3984  TIP3834     0.2052
 30864 H2          25.7150    21.6330    30.4480 H      3984  TIP3834     0.2052
 30865 OH2         26.0240     0.5940    51.3990 O.3    3985  TIP3835    -0.4105
 30866 H1          26.2720    -0.0910    52.0200 H      3985  TIP3835     0.2052
 30867 H2          26.6060     0.4610    50.6510 H      3985  TIP3835     0.2052
 30868 OH2         12.6130   -28.7480   -27.0040 O.3    3986  TIP3836    -0.4105
 30869 H1          12.7410   -28.7540   -26.0560 H      3986  TIP3836     0.2052
 30870 H2          12.7540   -29.6560   -27.2720 H      3986  TIP3836     0.2052
 30871 OH2         19.6130     9.2060    33.7580 O.3    3987  TIP3837    -0.4105
 30872 H1          19.7520    10.0890    34.1000 H      3987  TIP3837     0.2052
 30873 H2          18.6690     9.1510    33.6100 H      3987  TIP3837     0.2052
 30874 OH2          9.2310     1.5060   -37.0750 O.3    3988  TIP3838    -0.4105
 30875 H1           9.5310     0.6820   -36.6920 H      3988  TIP3838     0.2052
 30876 H2           9.8270     1.6610   -37.8080 H      3988  TIP3838     0.2052
 30877 OH2         27.8650   -21.3470    51.8300 O.3    3989  TIP3839    -0.4105
 30878 H1          28.4950   -21.9930    51.5100 H      3989  TIP3839     0.2052
 30879 H2          27.5470   -20.9100    51.0400 H      3989  TIP3839     0.2052
 30880 OH2        -17.4130   -15.4630    35.5710 O.3    3990  TIP3840    -0.4105
 30881 H1         -17.1840   -15.4360    34.6420 H      3990  TIP3840     0.2052
 30882 H2         -16.9180   -14.7420    35.9610 H      3990  TIP3840     0.2052
 30883 OH2         20.0930   -22.5920   -33.2430 O.3    3991  TIP3841    -0.4105
 30884 H1          19.8670   -21.9430   -32.5760 H      3991  TIP3841     0.2052
 30885 H2          20.9270   -22.2880   -33.6010 H      3991  TIP3841     0.2052
 30886 OH2        -26.0590    -9.9230   -43.6020 O.3    3992  TIP3842    -0.4105
 30887 H1         -26.9370    -9.8030   -43.2390 H      3992  TIP3842     0.2052
 30888 H2         -25.9760   -10.8690   -43.7210 H      3992  TIP3842     0.2052
 30889 OH2         32.6980   -17.2250   -39.4260 O.3    3993  TIP3843    -0.4105
 30890 H1          33.6340   -17.2530   -39.6250 H      3993  TIP3843     0.2052
 30891 H2          32.2730   -17.1630   -40.2810 H      3993  TIP3843     0.2052
 30892 OH2         -8.8520    17.0370   -28.4420 O.3    3994  TIP3844    -0.4105
 30893 H1          -9.5460    17.5840   -28.8100 H      3994  TIP3844     0.2052
 30894 H2          -9.1170    16.1410   -28.6490 H      3994  TIP3844     0.2052
 30895 OH2        -28.4900    20.3620   -43.5650 O.3    3995  TIP3845    -0.4105
 30896 H1         -29.2970    19.8710   -43.4140 H      3995  TIP3845     0.2052
 30897 H2         -27.7940    19.7820   -43.2550 H      3995  TIP3845     0.2052
 30898 OH2        -32.0210    -7.1640    43.2610 O.3    3996  TIP3846    -0.4105
 30899 H1         -31.4230    -7.7830    42.8410 H      3996  TIP3846     0.2052
 30900 H2         -31.8200    -7.2320    44.1940 H      3996  TIP3846     0.2052
 30901 OH2        -16.2280   -10.6830    49.6510 O.3    3997  TIP3847    -0.4105
 30902 H1         -15.4580   -10.1930    49.9410 H      3997  TIP3847     0.2052
 30903 H2         -16.1980   -10.6320    48.6960 H      3997  TIP3847     0.2052
 30904 OH2          6.0320   -32.5540   -26.4920 O.3    3998  TIP3848    -0.4105
 30905 H1           5.5370   -33.1930   -27.0040 H      3998  TIP3848     0.2052
 30906 H2           6.9240   -32.9000   -26.4730 H      3998  TIP3848     0.2052
 30907 OH2        -15.0340   -18.9660    54.9840 O.3    3999  TIP3849    -0.4105
 30908 H1         -15.2420   -18.9920    54.0500 H      3999  TIP3849     0.2052
 30909 H2         -15.3420   -19.8060    55.3220 H      3999  TIP3849     0.2052
 30910 OH2        -30.1220   -20.8830    31.1150 O.3    4000  TIP3850    -0.4105
 30911 H1         -29.3160   -21.2650    30.7670 H      4000  TIP3850     0.2052
 30912 H2         -30.8240   -21.3750    30.6900 H      4000  TIP3850     0.2052
 30913 OH2         -1.6940     0.7630    42.5010 O.3    4001  TIP3851    -0.4105
 30914 H1          -1.6610     1.1740    41.6370 H      4001  TIP3851     0.2052
 30915 H2          -2.6150     0.5330    42.6220 H      4001  TIP3851     0.2052
 30916 OH2         28.1250    25.7780    45.8490 O.3    4002  TIP3852    -0.4105
 30917 H1          29.0350    26.0720    45.7960 H      4002  TIP3852     0.2052
 30918 H2          27.8120    25.8040    44.9450 H      4002  TIP3852     0.2052
 30919 OH2         22.2660    25.8090    36.8230 O.3    4003  TIP3853    -0.4105
 30920 H1          23.1560    25.4970    36.9840 H      4003  TIP3853     0.2052
 30921 H2          21.7430    25.0120    36.7380 H      4003  TIP3853     0.2052
 30922 OH2        -14.9780     8.1600   -54.9340 O.3    4004  TIP3854    -0.4105
 30923 H1         -14.8930     8.4230   -54.0180 H      4004  TIP3854     0.2052
 30924 H2         -15.9000     7.9220   -55.0320 H      4004  TIP3854     0.2052
 30925 OH2         19.9820   -16.7850   -49.8270 O.3    4005  TIP3855    -0.4105
 30926 H1          20.9090   -16.8760   -49.6070 H      4005  TIP3855     0.2052
 30927 H2          19.5340   -16.7820   -48.9810 H      4005  TIP3855     0.2052
 30928 OH2          3.1590   -25.8630    28.9410 O.3    4006  TIP3856    -0.4105
 30929 H1           4.0130   -25.8150    28.5100 H      4006  TIP3856     0.2052
 30930 H2           2.8300   -24.9640    28.9210 H      4006  TIP3856     0.2052
 30931 OH2         17.7370     8.8550   -35.6760 O.3    4007  TIP3857    -0.4105
 30932 H1          17.1900     9.4040   -36.2380 H      4007  TIP3857     0.2052
 30933 H2          17.6440     7.9740   -36.0380 H      4007  TIP3857     0.2052
 30934 OH2         10.0530    24.8260   -47.0200 O.3    4008  TIP3858    -0.4105
 30935 H1           9.5290    24.0420   -47.1840 H      4008  TIP3858     0.2052
 30936 H2          10.0870    25.2730   -47.8650 H      4008  TIP3858     0.2052
 30937 OH2          4.0110    16.7240   -50.0670 O.3    4009  TIP3859    -0.4105
 30938 H1           3.1680    17.1560   -50.2050 H      4009  TIP3859     0.2052
 30939 H2           3.8240    15.7910   -50.1730 H      4009  TIP3859     0.2052
 30940 OH2         28.9760    28.8330   -35.2390 O.3    4010  TIP3860    -0.4105
 30941 H1          29.1290    28.2520   -34.4940 H      4010  TIP3860     0.2052
 30942 H2          28.0670    29.1170   -35.1390 H      4010  TIP3860     0.2052
 30943 OH2         14.2540    19.9170   -28.8440 O.3    4011  TIP3861    -0.4105
 30944 H1          14.9350    20.5680   -28.6780 H      4011  TIP3861     0.2052
 30945 H2          13.6290    20.3620   -29.4160 H      4011  TIP3861     0.2052
 30946 OH2         -2.7660    10.6940   -18.2680 O.3    4012  TIP3862    -0.4105
 30947 H1          -2.6540     9.8550   -18.7140 H      4012  TIP3862     0.2052
 30948 H2          -2.5030    11.3480   -18.9150 H      4012  TIP3862     0.2052
 30949 OH2         -1.0460    10.9560    49.3240 O.3    4013  TIP3863    -0.4105
 30950 H1          -0.5110    10.2260    49.0100 H      4013  TIP3863     0.2052
 30951 H2          -1.6170    10.5670    49.9870 H      4013  TIP3863     0.2052
 30952 OH2        -10.8960    -9.5680    44.8970 O.3    4014  TIP3864    -0.4105
 30953 H1         -10.2560    -9.9990    45.4640 H      4014  TIP3864     0.2052
 30954 H2         -11.3320    -8.9340    45.4670 H      4014  TIP3864     0.2052
 30955 OH2        -17.6980   -24.9310    40.9180 O.3    4015  TIP3865    -0.4105
 30956 H1         -18.2950   -25.4860    40.4150 H      4015  TIP3865     0.2052
 30957 H2         -17.5850   -25.3940    41.7490 H      4015  TIP3865     0.2052
 30958 OH2        -14.9850   -24.1020    33.2080 O.3    4016  TIP3866    -0.4105
 30959 H1         -14.3620   -23.6360    33.7650 H      4016  TIP3866     0.2052
 30960 H2         -15.1410   -23.5090    32.4730 H      4016  TIP3866     0.2052
 30961 OH2        -11.2690    22.0390   -35.0530 O.3    4017  TIP3867    -0.4105
 30962 H1         -11.0610    21.3730   -35.7080 H      4017  TIP3867     0.2052
 30963 H2         -12.1700    21.8470   -34.7940 H      4017  TIP3867     0.2052
 30964 OH2          0.4130    28.0240    44.7770 O.3    4018  TIP3868    -0.4105
 30965 H1           0.1670    27.4130    45.4710 H      4018  TIP3868     0.2052
 30966 H2           0.2110    27.5580    43.9650 H      4018  TIP3868     0.2052
 30967 OH2         27.7920   -15.5360    27.7450 O.3    4019  TIP3869    -0.4105
 30968 H1          26.8600   -15.3330    27.6710 H      4019  TIP3869     0.2052
 30969 H2          27.8220   -16.4850    27.8640 H      4019  TIP3869     0.2052
 30970 OH2        -31.7550    13.1820   -32.9120 O.3    4020  TIP3870    -0.4105
 30971 H1         -31.6650    13.5650   -33.7850 H      4020  TIP3870     0.2052
 30972 H2         -32.6170    13.4690   -32.6120 H      4020  TIP3870     0.2052
 30973 OH2         20.5140   -11.2460    53.3960 O.3    4021  TIP3871    -0.4105
 30974 H1          19.7390   -11.5640    53.8590 H      4021  TIP3871     0.2052
 30975 H2          20.6870   -10.3870    53.7790 H      4021  TIP3871     0.2052
 30976 OH2         -0.5260   -27.8490   -39.2230 O.3    4022  TIP3872    -0.4105
 30977 H1          -0.8200   -27.0860   -38.7250 H      4022  TIP3872     0.2052
 30978 H2          -1.3330   -28.2470   -39.5490 H      4022  TIP3872     0.2052
 30979 OH2         22.0790    17.1600   -25.6190 O.3    4023  TIP3873    -0.4105
 30980 H1          21.8810    16.7010   -26.4350 H      4023  TIP3873     0.2052
 30981 H2          22.2410    18.0650   -25.8860 H      4023  TIP3873     0.2052
 30982 OH2        -22.7240   -13.1790    24.2990 O.3    4024  TIP3874    -0.4105
 30983 H1         -21.7890   -13.2750    24.1190 H      4024  TIP3874     0.2052
 30984 H2         -22.7920   -13.2340    25.2520 H      4024  TIP3874     0.2052
 30985 OH2        -21.5320    14.5290    48.4580 O.3    4025  TIP3875    -0.4105
 30986 H1         -21.1190    14.0020    47.7740 H      4025  TIP3875     0.2052
 30987 H2         -22.3090    14.8990    48.0390 H      4025  TIP3875     0.2052
 30988 OH2          3.3000   -17.1960    38.8020 O.3    4026  TIP3876    -0.4105
 30989 H1           2.8170   -17.4940    39.5730 H      4026  TIP3876     0.2052
 30990 H2           3.7900   -16.4320    39.1060 H      4026  TIP3876     0.2052
 30991 OH2          4.0580    -4.4670   -36.5150 O.3    4027  TIP3877    -0.4105
 30992 H1           3.8340    -4.6260   -37.4320 H      4027  TIP3877     0.2052
 30993 H2           4.7920    -3.8530   -36.5510 H      4027  TIP3877     0.2052
 30994 OH2          6.8740    21.9070   -36.2570 O.3    4028  TIP3878    -0.4105
 30995 H1           6.8520    21.0720   -35.7910 H      4028  TIP3878     0.2052
 30996 H2           7.7840    22.1970   -36.1890 H      4028  TIP3878     0.2052
 30997 OH2        -28.1470     7.7060    18.7410 O.3    4029  TIP3879    -0.4105
 30998 H1         -28.7510     8.3970    19.0130 H      4029  TIP3879     0.2052
 30999 H2         -28.6450     6.8960    18.8500 H      4029  TIP3879     0.2052
 31000 OH2         12.1390    20.5820   -33.4500 O.3    4030  TIP3880    -0.4105
 31001 H1          11.7360    21.4420   -33.5670 H      4030  TIP3880     0.2052
 31002 H2          12.9730    20.6420   -33.9160 H      4030  TIP3880     0.2052
 31003 OH2        -26.1720    18.7150    43.0410 O.3    4031  TIP3881    -0.4105
 31004 H1         -25.3200    19.0260    42.7340 H      4031  TIP3881     0.2052
 31005 H2         -26.6770    18.5720    42.2410 H      4031  TIP3881     0.2052
 31006 OH2        -22.3680   -10.6250    20.7050 O.3    4032  TIP3882    -0.4105
 31007 H1         -21.7380   -10.8180    21.4000 H      4032  TIP3882     0.2052
 31008 H2         -22.1840   -11.2740    20.0270 H      4032  TIP3882     0.2052
 31009 OH2          0.0800    -3.3520   -20.2310 O.3    4033  TIP3883    -0.4105
 31010 H1          -0.7370    -3.7200   -19.8950 H      4033  TIP3883     0.2052
 31011 H2           0.5980    -4.1150   -20.4880 H      4033  TIP3883     0.2052
 31012 OH2          8.0820    -9.3540   -25.3100 O.3    4034  TIP3884    -0.4105
 31013 H1           8.0660   -10.3010   -25.4490 H      4034  TIP3884     0.2052
 31014 H2           7.3790    -9.1930   -24.6800 H      4034  TIP3884     0.2052
 31015 OH2          7.6010     4.9850   -19.6730 O.3    4035  TIP3885    -0.4105
 31016 H1           8.4570     5.3060   -19.3890 H      4035  TIP3885     0.2052
 31017 H2           6.9750     5.4430   -19.1130 H      4035  TIP3885     0.2052
 31018 OH2         16.0030   -23.7670   -35.9290 O.3    4036  TIP3886    -0.4105
 31019 H1          16.9130   -23.4750   -35.8790 H      4036  TIP3886     0.2052
 31020 H2          16.0600   -24.6990   -36.1380 H      4036  TIP3886     0.2052
 31021 OH2         -2.0770   -18.7460    35.5220 O.3    4037  TIP3887    -0.4105
 31022 H1          -1.7220   -17.9700    35.0870 H      4037  TIP3887     0.2052
 31023 H2          -1.6500   -18.7570    36.3790 H      4037  TIP3887     0.2052
 31024 OH2         23.1980   -20.9690   -22.1670 O.3    4038  TIP3888    -0.4105
 31025 H1          24.0950   -20.7020   -21.9640 H      4038  TIP3888     0.2052
 31026 H2          22.9690   -21.5860   -21.4730 H      4038  TIP3888     0.2052
 31027 OH2        -17.6050    30.1590   -45.2770 O.3    4039  TIP3889    -0.4105
 31028 H1         -18.2640    30.8290   -45.0930 H      4039  TIP3889     0.2052
 31029 H2         -18.1090    29.3580   -45.4160 H      4039  TIP3889     0.2052
 31030 OH2         26.7870    17.6680   -53.9270 O.3    4040  TIP3890    -0.4105
 31031 H1          27.1130    16.8290   -54.2520 H      4040  TIP3890     0.2052
 31032 H2          27.5020    18.0130   -53.3920 H      4040  TIP3890     0.2052
 31033 OH2          6.0910   -21.6740    42.0390 O.3    4041  TIP3891    -0.4105
 31034 H1           5.5790   -22.4040    42.3890 H      4041  TIP3891     0.2052
 31035 H2           6.8930   -21.6720    42.5610 H      4041  TIP3891     0.2052
 31036 OH2         -2.8030   -18.8490    51.3680 O.3    4042  TIP3892    -0.4105
 31037 H1          -1.9000   -18.8240    51.6840 H      4042  TIP3892     0.2052
 31038 H2          -3.3360   -18.7430    52.1550 H      4042  TIP3892     0.2052
 31039 OH2         27.0850     6.2180   -48.6560 O.3    4043  TIP3893    -0.4105
 31040 H1          26.6120     5.3910   -48.5590 H      4043  TIP3893     0.2052
 31041 H2          26.4100     6.8910   -48.5750 H      4043  TIP3893     0.2052
 31042 OH2         15.4420    17.8680    33.7250 O.3    4044  TIP3894    -0.4105
 31043 H1          15.4390    18.5370    34.4100 H      4044  TIP3894     0.2052
 31044 H2          14.5380    17.8430    33.4110 H      4044  TIP3894     0.2052
 31045 OH2         -8.8740     1.3960   -39.5910 O.3    4045  TIP3895    -0.4105
 31046 H1          -9.6380     0.8560   -39.7910 H      4045  TIP3895     0.2052
 31047 H2          -8.5120     1.6270   -40.4470 H      4045  TIP3895     0.2052
 31048 OH2         -8.8540   -17.7450    50.8020 O.3    4046  TIP3896    -0.4105
 31049 H1          -9.7470   -17.4150    50.8980 H      4046  TIP3896     0.2052
 31050 H2          -8.5970   -18.0040    51.6870 H      4046  TIP3896     0.2052
 31051 OH2          1.9990    -3.1420   -25.8280 O.3    4047  TIP3897    -0.4105
 31052 H1           1.6730    -2.5200   -25.1770 H      4047  TIP3897     0.2052
 31053 H2           1.2200    -3.4040   -26.3190 H      4047  TIP3897     0.2052
 31054 OH2         -2.4700    -5.3280   -52.1750 O.3    4048  TIP3898    -0.4105
 31055 H1          -2.7540    -6.0490   -52.7360 H      4048  TIP3898     0.2052
 31056 H2          -3.2810    -4.8850   -51.9240 H      4048  TIP3898     0.2052
 31057 OH2          9.7530    17.6730   -52.8260 O.3    4049  TIP3899    -0.4105
 31058 H1           9.0530    18.0120   -53.3860 H      4049  TIP3899     0.2052
 31059 H2          10.3160    18.4290   -52.6620 H      4049  TIP3899     0.2052
 31060 OH2         -5.7020    26.5010   -54.3790 O.3    4050  TIP3900    -0.4105
 31061 H1          -4.7810    26.6350   -54.1550 H      4050  TIP3900     0.2052
 31062 H2          -5.8540    25.5690   -54.2190 H      4050  TIP3900     0.2052
 31063 OH2         13.4930    -6.8560   -32.7870 O.3    4051  TIP3901    -0.4105
 31064 H1          13.2430    -7.7400   -33.0570 H      4051  TIP3901     0.2052
 31065 H2          13.4940    -6.8890   -31.8310 H      4051  TIP3901     0.2052
 31066 OH2        -30.1030    26.9960    18.0030 O.3    4052  TIP3902    -0.4105
 31067 H1         -29.4890    27.6620    18.3120 H      4052  TIP3902     0.2052
 31068 H2         -29.9070    26.9050    17.0700 H      4052  TIP3902     0.2052
 31069 OH2          6.2260    -5.0740   -33.9150 O.3    4053  TIP3903    -0.4105
 31070 H1           5.3870    -4.6250   -33.8090 H      4053  TIP3903     0.2052
 31071 H2           6.1300    -5.5720   -34.7270 H      4053  TIP3903     0.2052
 31072 OH2         -1.1560    29.7940   -36.2130 O.3    4054  TIP3904    -0.4105
 31073 H1          -0.5640    29.1580   -36.6150 H      4054  TIP3904     0.2052
 31074 H2          -1.1150    30.5570   -36.7890 H      4054  TIP3904     0.2052
 31075 OH2        -30.3990   -13.1890    25.3630 O.3    4055  TIP3905    -0.4105
 31076 H1         -30.9990   -13.9090    25.5560 H      4055  TIP3905     0.2052
 31077 H2         -30.6830   -12.8620    24.5090 H      4055  TIP3905     0.2052
 31078 OH2         31.9680    30.3100    41.3280 O.3    4056  TIP3906    -0.4105
 31079 H1          31.2540    30.0600    41.9140 H      4056  TIP3906     0.2052
 31080 H2          31.9860    29.6200    40.6640 H      4056  TIP3906     0.2052
 31081 OH2        -14.1010    -1.3150   -36.6760 O.3    4057  TIP3907    -0.4105
 31082 H1         -13.8050    -1.0190   -35.8150 H      4057  TIP3907     0.2052
 31083 H2         -13.4680    -0.9420   -37.2890 H      4057  TIP3907     0.2052
 31084 OH2        -27.2540   -24.5940   -43.4110 O.3    4058  TIP3908    -0.4105
 31085 H1         -27.2250   -23.6610   -43.2000 H      4058  TIP3908     0.2052
 31086 H2         -27.6160   -25.0060   -42.6260 H      4058  TIP3908     0.2052
 31087 OH2        -22.3780     8.2850   -55.4150 O.3    4059  TIP3909    -0.4105
 31088 H1         -23.2450     8.0280   -55.7310 H      4059  TIP3909     0.2052
 31089 H2         -21.7680     7.8700   -56.0240 H      4059  TIP3909     0.2052
 31090 OH2         20.4690   -15.5030   -52.1290 O.3    4060  TIP3910    -0.4105
 31091 H1          20.5150   -16.2980   -51.5980 H      4060  TIP3910     0.2052
 31092 H2          20.9120   -14.8370   -51.6020 H      4060  TIP3910     0.2052
 31093 OH2         21.1340     9.2840   -43.8290 O.3    4061  TIP3911    -0.4105
 31094 H1          21.0590     9.8900   -43.0920 H      4061  TIP3911     0.2052
 31095 H2          21.8760     9.6150   -44.3360 H      4061  TIP3911     0.2052
 31096 OH2          6.6500     1.8040   -52.4370 O.3    4062  TIP3912    -0.4105
 31097 H1           7.4030     1.6640   -53.0100 H      4062  TIP3912     0.2052
 31098 H2           5.9200     1.9650   -53.0350 H      4062  TIP3912     0.2052
 31099 OH2         11.0060    23.6010    47.7650 O.3    4063  TIP3913    -0.4105
 31100 H1          11.2900    24.2110    48.4450 H      4063  TIP3913     0.2052
 31101 H2          10.0610    23.5240    47.8900 H      4063  TIP3913     0.2052
 31102 OH2        -30.5590    -0.0580    26.0090 O.3    4064  TIP3914    -0.4105
 31103 H1         -31.3650    -0.1740    25.5060 H      4064  TIP3914     0.2052
 31104 H2         -30.4260    -0.8990    26.4470 H      4064  TIP3914     0.2052
 31105 OH2         -3.0340    -6.1300   -44.7980 O.3    4065  TIP3915    -0.4105
 31106 H1          -3.1140    -5.7610   -43.9180 H      4065  TIP3915     0.2052
 31107 H2          -3.4830    -5.5020   -45.3640 H      4065  TIP3915     0.2052
 31108 OH2        -13.2880     4.6920   -25.8570 O.3    4066  TIP3916    -0.4105
 31109 H1         -13.6290     4.5650   -26.7420 H      4066  TIP3916     0.2052
 31110 H2         -13.3470     5.6360   -25.7090 H      4066  TIP3916     0.2052
 31111 OH2         21.5300     8.1850   -32.3490 O.3    4067  TIP3917    -0.4105
 31112 H1          20.7370     7.8730   -32.7850 H      4067  TIP3917     0.2052
 31113 H2          21.6570     9.0710   -32.6880 H      4067  TIP3917     0.2052
 31114 OH2          6.3400    10.4630   -51.1780 O.3    4068  TIP3918    -0.4105
 31115 H1           6.9150    10.8380   -50.5120 H      4068  TIP3918     0.2052
 31116 H2           6.4680    11.0180   -51.9470 H      4068  TIP3918     0.2052
 31117 OH2        -24.9480   -23.4470   -46.5860 O.3    4069  TIP3919    -0.4105
 31118 H1         -25.6070   -22.8000   -46.3320 H      4069  TIP3919     0.2052
 31119 H2         -25.4330   -24.2690   -46.6560 H      4069  TIP3919     0.2052
 31120 OH2          1.5830    20.0630   -52.4460 O.3    4070  TIP3920    -0.4105
 31121 H1           1.3260    19.1460   -52.5440 H      4070  TIP3920     0.2052
 31122 H2           0.7690    20.5540   -52.5590 H      4070  TIP3920     0.2052
 31123 OH2         21.3310     2.7130    52.7650 O.3    4071  TIP3921    -0.4105
 31124 H1          21.6180     2.9960    51.8970 H      4071  TIP3921     0.2052
 31125 H2          21.9250     1.9970    52.9930 H      4071  TIP3921     0.2052
 31126 OH2          1.1600   -16.8180    51.5700 O.3    4072  TIP3922    -0.4105
 31127 H1           0.9180   -16.5490    50.6840 H      4072  TIP3922     0.2052
 31128 H2           0.3390   -16.7950    52.0610 H      4072  TIP3922     0.2052
 31129 OH2         -5.6310    -1.9410   -28.2580 O.3    4073  TIP3923    -0.4105
 31130 H1          -4.8710    -1.9260   -27.6750 H      4073  TIP3923     0.2052
 31131 H2          -6.2260    -1.2860   -27.8940 H      4073  TIP3923     0.2052
 31132 OH2        -13.3080    31.2170    53.3130 O.3    4074  TIP3924    -0.4105
 31133 H1         -14.1520    31.5850    53.5710 H      4074  TIP3924     0.2052
 31134 H2         -13.4860    30.2870    53.1680 H      4074  TIP3924     0.2052
 31135 OH2         -1.0270    17.0230    31.9060 O.3    4075  TIP3925    -0.4105
 31136 H1          -1.5150    16.5670    32.5910 H      4075  TIP3925     0.2052
 31137 H2          -0.7530    16.3300    31.3050 H      4075  TIP3925     0.2052
 31138 OH2         -7.8640    -1.4740    31.5200 O.3    4076  TIP3926    -0.4105
 31139 H1          -8.4510    -0.9710    30.9560 H      4076  TIP3926     0.2052
 31140 H2          -7.2370    -0.8300    31.8490 H      4076  TIP3926     0.2052
 31141 OH2         -3.0240    10.3500   -30.5590 O.3    4077  TIP3927    -0.4105
 31142 H1          -3.9310    10.4520   -30.2700 H      4077  TIP3927     0.2052
 31143 H2          -2.6670     9.6660   -29.9920 H      4077  TIP3927     0.2052
 31144 OH2        -25.1240    -0.7110    28.7300 O.3    4078  TIP3928    -0.4105
 31145 H1         -26.0810    -0.7410    28.7510 H      4078  TIP3928     0.2052
 31146 H2         -24.9170     0.2020    28.5320 H      4078  TIP3928     0.2052
 31147 OH2          9.3780   -29.3100   -48.4430 O.3    4079  TIP3929    -0.4105
 31148 H1          10.1070   -29.1690   -47.8390 H      4079  TIP3929     0.2052
 31149 H2           8.6900   -28.7230   -48.1300 H      4079  TIP3929     0.2052
 31150 OH2         29.1510    13.4090    27.4500 O.3    4080  TIP3930    -0.4105
 31151 H1          29.2650    13.6140    28.3780 H      4080  TIP3930     0.2052
 31152 H2          28.2880    12.9970    27.4000 H      4080  TIP3930     0.2052
 31153 OH2         18.7780    -9.3600    28.9940 O.3    4081  TIP3931    -0.4105
 31154 H1          19.1770    -9.1680    29.8420 H      4081  TIP3931     0.2052
 31155 H2          18.7300   -10.3160    28.9620 H      4081  TIP3931     0.2052
 31156 OH2         32.5550     9.4270    42.2000 O.3    4082  TIP3932    -0.4105
 31157 H1          32.5270     9.1040    43.1010 H      4082  TIP3932     0.2052
 31158 H2          33.4700     9.3250    41.9370 H      4082  TIP3932     0.2052
 31159 OH2         31.6810   -21.9120   -48.2930 O.3    4083  TIP3933    -0.4105
 31160 H1          32.0730   -21.3700   -47.6080 H      4083  TIP3933     0.2052
 31161 H2          32.4200   -22.1720   -48.8440 H      4083  TIP3933     0.2052
 31162 OH2         16.1350     3.5510    24.6320 O.3    4084  TIP3934    -0.4105
 31163 H1          16.3600     4.4670    24.7920 H      4084  TIP3934     0.2052
 31164 H2          16.1730     3.4570    23.6810 H      4084  TIP3934     0.2052
 31165 OH2         30.5570   -16.6420    45.4240 O.3    4085  TIP3935    -0.4105
 31166 H1          31.1030   -17.4280    45.4490 H      4085  TIP3935     0.2052
 31167 H2          30.9180   -16.1230    44.7060 H      4085  TIP3935     0.2052
 31168 OH2         13.6360    -6.7330   -12.9940 O.3    4086  TIP3936    -0.4105
 31169 H1          13.6330    -6.4020   -12.0960 H      4086  TIP3936     0.2052
 31170 H2          12.7140    -6.8990   -13.1920 H      4086  TIP3936     0.2052
 31171 OH2         24.5440    23.8710    37.5540 O.3    4087  TIP3937    -0.4105
 31172 H1          25.1050    23.5170    36.8640 H      4087  TIP3937     0.2052
 31173 H2          24.3930    23.1310    38.1430 H      4087  TIP3937     0.2052
 31174 OH2        -28.3510    -3.6660   -45.4600 O.3    4088  TIP3938    -0.4105
 31175 H1         -27.8160    -3.9940   -46.1830 H      4088  TIP3938     0.2052
 31176 H2         -28.4270    -4.4090   -44.8620 H      4088  TIP3938     0.2052
 31177 OH2        -19.3880     5.4500    34.7930 O.3    4089  TIP3939    -0.4105
 31178 H1         -20.1920     5.2970    35.2900 H      4089  TIP3939     0.2052
 31179 H2         -19.3600     4.7360    34.1560 H      4089  TIP3939     0.2052
 31180 OH2        -19.9580   -16.3000    35.9030 O.3    4090  TIP3940    -0.4105
 31181 H1         -20.3410   -16.2770    35.0260 H      4090  TIP3940     0.2052
 31182 H2         -19.0370   -16.0760    35.7690 H      4090  TIP3940     0.2052
 31183 OH2        -19.4780    -1.8900   -37.8760 O.3    4091  TIP3941    -0.4105
 31184 H1         -19.0560    -2.2380   -38.6620 H      4091  TIP3941     0.2052
 31185 H2         -19.2590    -0.9590   -37.8780 H      4091  TIP3941     0.2052
 31186 OH2        -11.2340    -9.4740    37.8580 O.3    4092  TIP3942    -0.4105
 31187 H1         -12.0550    -9.9560    37.9560 H      4092  TIP3942     0.2052
 31188 H2         -11.4330    -8.7880    37.2210 H      4092  TIP3942     0.2052
 31189 OH2        -29.1290     0.1660   -24.3000 O.3    4093  TIP3943    -0.4105
 31190 H1         -28.5790    -0.5680   -24.5740 H      4093  TIP3943     0.2052
 31191 H2         -28.8270     0.9030   -24.8310 H      4093  TIP3943     0.2052
 31192 OH2          5.9580     3.7730   -32.7430 O.3    4094  TIP3944    -0.4105
 31193 H1           6.8520     4.0620   -32.9270 H      4094  TIP3944     0.2052
 31194 H2           5.5070     3.8400   -33.5850 H      4094  TIP3944     0.2052
 31195 OH2        -18.2810   -28.4770   -27.8390 O.3    4095  TIP3945    -0.4105
 31196 H1         -17.5100   -28.2770   -27.3090 H      4095  TIP3945     0.2052
 31197 H2         -18.1980   -29.4080   -28.0430 H      4095  TIP3945     0.2052
 31198 OH2          2.5670    24.3560   -44.4140 O.3    4096  TIP3946    -0.4105
 31199 H1           1.9730    23.7030   -44.0420 H      4096  TIP3946     0.2052
 31200 H2           2.9580    24.7850   -43.6530 H      4096  TIP3946     0.2052
 31201 OH2         18.5880    17.0900   -51.2220 O.3    4097  TIP3947    -0.4105
 31202 H1          17.6570    16.8830   -51.1320 H      4097  TIP3947     0.2052
 31203 H2          18.8890    16.5330   -51.9400 H      4097  TIP3947     0.2052
 31204 OH2        -11.7550   -20.6570    31.1200 O.3    4098  TIP3948    -0.4105
 31205 H1         -11.0010   -20.2360    30.7070 H      4098  TIP3948     0.2052
 31206 H2         -12.0250   -20.0460    31.8060 H      4098  TIP3948     0.2052
 31207 OH2          5.5450    -6.8060    46.3370 O.3    4099  TIP3949    -0.4105
 31208 H1           5.6150    -7.5310    46.9580 H      4099  TIP3949     0.2052
 31209 H2           6.0500    -7.0940    45.5760 H      4099  TIP3949     0.2052
 31210 OH2        -15.7460    -8.5070    47.3290 O.3    4100  TIP3950    -0.4105
 31211 H1         -15.0250    -8.0870    46.8610 H      4100  TIP3950     0.2052
 31212 H2         -16.5070    -7.9580    47.1400 H      4100  TIP3950     0.2052
 31213 OH2         -2.3840    32.0070    19.8150 O.3    4101  TIP3951    -0.4105
 31214 H1          -2.9520    32.5110    19.2330 H      4101  TIP3951     0.2052
 31215 H2          -2.1330    31.2390    19.3010 H      4101  TIP3951     0.2052
 31216 OH2        -32.4230    32.5720    37.5940 O.3    4102  TIP3952    -0.4105
 31217 H1         -33.0800    32.9230    38.1950 H      4102  TIP3952     0.2052
 31218 H2         -32.9220    32.0290    36.9840 H      4102  TIP3952     0.2052
 31219 OH2        -18.6120    17.6660    48.9880 O.3    4103  TIP3953    -0.4105
 31220 H1         -17.9850    18.3440    49.2380 H      4103  TIP3953     0.2052
 31221 H2         -19.1450    18.0720    48.3040 H      4103  TIP3953     0.2052
 31222 OH2          7.1440    30.0430    27.4250 O.3    4104  TIP3954    -0.4105
 31223 H1           6.9300    29.2530    27.9210 H      4104  TIP3954     0.2052
 31224 H2           6.4340    30.1270    26.7890 H      4104  TIP3954     0.2052
 31225 OH2         17.1600   -17.8450    46.8720 O.3    4105  TIP3955    -0.4105
 31226 H1          16.7840   -17.2250    47.4970 H      4105  TIP3955     0.2052
 31227 H2          16.4510   -18.0240    46.2540 H      4105  TIP3955     0.2052
 31228 OH2        -25.3770     0.2090    47.5780 O.3    4106  TIP3956    -0.4105
 31229 H1         -25.1410     0.9380    47.0050 H      4106  TIP3956     0.2052
 31230 H2         -24.6800    -0.4340    47.4470 H      4106  TIP3956     0.2052
 31231 OH2        -11.2690    15.6200   -45.7860 O.3    4107  TIP3957    -0.4105
 31232 H1         -10.9680    14.9730   -46.4250 H      4107  TIP3957     0.2052
 31233 H2         -11.7040    15.1030   -45.1080 H      4107  TIP3957     0.2052
 31234 OH2         31.5990    -2.8330    24.2160 O.3    4108  TIP3958    -0.4105
 31235 H1          31.3470    -3.6620    24.6230 H      4108  TIP3958     0.2052
 31236 H2          30.8860    -2.2320    24.4340 H      4108  TIP3958     0.2052
 31237 OH2        -10.3220    12.5750   -40.7870 O.3    4109  TIP3959    -0.4105
 31238 H1         -10.6630    11.6910   -40.9250 H      4109  TIP3959     0.2052
 31239 H2         -11.0820    13.1460   -40.8960 H      4109  TIP3959     0.2052
 31240 OH2         24.4940     5.2520   -36.8260 O.3    4110  TIP3960    -0.4105
 31241 H1          24.9170     6.1050   -36.7270 H      4110  TIP3960     0.2052
 31242 H2          23.5850     5.4040   -36.5650 H      4110  TIP3960     0.2052
 31243 OH2        -28.5410    29.2770   -50.0920 O.3    4111  TIP3961    -0.4105
 31244 H1         -27.7650    29.5530   -49.6050 H      4111  TIP3961     0.2052
 31245 H2         -28.1950    28.7740   -50.8300 H      4111  TIP3961     0.2052
 31246 OH2          7.1020     5.3660    39.6860 O.3    4112  TIP3962    -0.4105
 31247 H1           7.8880     5.6850    39.2430 H      4112  TIP3962     0.2052
 31248 H2           7.3880     4.5770    40.1450 H      4112  TIP3962     0.2052
 31249 OH2         -5.6420    17.5040    45.7770 O.3    4113  TIP3963    -0.4105
 31250 H1          -6.0570    16.7000    46.0910 H      4113  TIP3963     0.2052
 31251 H2          -6.3300    18.1670    45.8340 H      4113  TIP3963     0.2052
 31252 OH2         18.6710    12.9800    33.7900 O.3    4114  TIP3964    -0.4105
 31253 H1          17.8080    12.5670    33.7630 H      4114  TIP3964     0.2052
 31254 H2          19.0050    12.8970    32.8960 H      4114  TIP3964     0.2052
 31255 OH2        -22.2170    14.4970   -20.6070 O.3    4115  TIP3965    -0.4105
 31256 H1         -21.7730    14.1660   -19.8260 H      4115  TIP3965     0.2052
 31257 H2         -23.1450    14.3320   -20.4450 H      4115  TIP3965     0.2052
 31258 OH2         -3.4410     1.9400   -19.2230 O.3    4116  TIP3966    -0.4105
 31259 H1          -3.6750     1.8200   -20.1440 H      4116  TIP3966     0.2052
 31260 H2          -2.4860     2.0130   -19.2260 H      4116  TIP3966     0.2052
 31261 OH2          5.0740    29.4730    32.5140 O.3    4117  TIP3967    -0.4105
 31262 H1           5.3610    30.2850    32.9330 H      4117  TIP3967     0.2052
 31263 H2           4.1240    29.4660    32.6310 H      4117  TIP3967     0.2052
 31264 OH2        -25.6640    19.6170   -33.2970 O.3    4118  TIP3968    -0.4105
 31265 H1         -26.4700    19.1010   -33.3320 H      4118  TIP3968     0.2052
 31266 H2         -25.6560    19.9900   -32.4150 H      4118  TIP3968     0.2052
 31267 OH2         -5.9560    -7.5230    41.6830 O.3    4119  TIP3969    -0.4105
 31268 H1          -6.6170    -7.5490    42.3750 H      4119  TIP3969     0.2052
 31269 H2          -5.4430    -8.3210    41.8110 H      4119  TIP3969     0.2052
 31270 OH2         29.1080    23.9760   -53.5190 O.3    4120  TIP3970    -0.4105
 31271 H1          29.9320    24.2980   -53.8840 H      4120  TIP3970     0.2052
 31272 H2          28.4390    24.5460   -53.8970 H      4120  TIP3970     0.2052
 31273 OH2         15.8870   -13.1960    45.6060 O.3    4121  TIP3971    -0.4105
 31274 H1          14.9430   -13.3540    45.6200 H      4121  TIP3971     0.2052
 31275 H2          15.9770   -12.3060    45.2660 H      4121  TIP3971     0.2052
 31276 OH2        -31.9630    13.9040   -29.1730 O.3    4122  TIP3972    -0.4105
 31277 H1         -31.3360    13.4180   -29.7090 H      4122  TIP3972     0.2052
 31278 H2         -31.6560    14.8100   -29.2080 H      4122  TIP3972     0.2052
 31279 OH2         -4.8090   -15.7800   -31.6360 O.3    4123  TIP3973    -0.4105
 31280 H1          -5.2130   -16.2620   -32.3580 H      4123  TIP3973     0.2052
 31281 H2          -5.5130   -15.6730   -30.9970 H      4123  TIP3973     0.2052
 31282 OH2         13.6270    -5.4260    48.0920 O.3    4124  TIP3974    -0.4105
 31283 H1          12.9460    -5.5810    48.7460 H      4124  TIP3974     0.2052
 31284 H2          14.4490    -5.5270    48.5720 H      4124  TIP3974     0.2052
 31285 OH2         -5.0990     8.1930   -28.0020 O.3    4125  TIP3975    -0.4105
 31286 H1          -5.2500     7.3790   -27.5210 H      4125  TIP3975     0.2052
 31287 H2          -5.8650     8.2810   -28.5700 H      4125  TIP3975     0.2052
 31288 OH2          3.0790    17.1370   -54.2950 O.3    4126  TIP3976    -0.4105
 31289 H1           3.1780    17.9680   -54.7600 H      4126  TIP3976     0.2052
 31290 H2           2.1960    17.1720   -53.9270 H      4126  TIP3976     0.2052
 31291 OH2         -9.6950     4.3390   -50.7370 O.3    4127  TIP3977    -0.4105
 31292 H1          -8.9630     4.9060   -50.9790 H      4127  TIP3977     0.2052
 31293 H2          -9.8430     4.5210   -49.8090 H      4127  TIP3977     0.2052
 31294 OH2        -30.7020   -26.9210    25.9980 O.3    4128  TIP3978    -0.4105
 31295 H1         -31.4190   -27.1230    25.3980 H      4128  TIP3978     0.2052
 31296 H2         -30.2000   -27.7340    26.0540 H      4128  TIP3978     0.2052
 31297 OH2         -5.6260   -30.7400    34.4250 O.3    4129  TIP3979    -0.4105
 31298 H1          -5.4820   -30.3490    33.5640 H      4129  TIP3979     0.2052
 31299 H2          -6.4230   -31.2610    34.3220 H      4129  TIP3979     0.2052
 31300 OH2         22.7810    18.3280    47.1230 O.3    4130  TIP3980    -0.4105
 31301 H1          22.2670    17.6280    47.5250 H      4130  TIP3980     0.2052
 31302 H2          22.6350    18.2230    46.1830 H      4130  TIP3980     0.2052
 31303 OH2        -14.4190   -13.8960   -21.5200 O.3    4131  TIP3981    -0.4105
 31304 H1         -13.4860   -14.0600   -21.3840 H      4131  TIP3981     0.2052
 31305 H2         -14.6170   -13.1510   -20.9530 H      4131  TIP3981     0.2052
 31306 OH2         23.8630    27.2150    49.2090 O.3    4132  TIP3982    -0.4105
 31307 H1          24.0160    27.3930    48.2810 H      4132  TIP3982     0.2052
 31308 H2          24.3970    26.4440    49.3980 H      4132  TIP3982     0.2052
 31309 OH2         22.1610    21.0020   -44.2060 O.3    4133  TIP3983    -0.4105
 31310 H1          21.7710    20.3130   -43.6680 H      4133  TIP3983     0.2052
 31311 H2          21.5890    21.0620   -44.9710 H      4133  TIP3983     0.2052
 31312 OH2         32.5790    -9.9070    36.1820 O.3    4134  TIP3984    -0.4105
 31313 H1          32.3660    -9.2700    35.5010 H      4134  TIP3984     0.2052
 31314 H2          32.2880    -9.4960    36.9960 H      4134  TIP3984     0.2052
 31315 OH2         28.8230    19.2100   -16.4960 O.3    4135  TIP3985    -0.4105
 31316 H1          28.1620    19.8910   -16.6220 H      4135  TIP3985     0.2052
 31317 H2          28.6120    18.8270   -15.6450 H      4135  TIP3985     0.2052
 31318 OH2         12.4080     8.6710   -24.0610 O.3    4136  TIP3986    -0.4105
 31319 H1          12.8210     9.2330   -24.7170 H      4136  TIP3986     0.2052
 31320 H2          11.5200     8.5310   -24.3910 H      4136  TIP3986     0.2052
 31321 OH2        -18.1000    32.2470    33.8810 O.3    4137  TIP3987    -0.4105
 31322 H1         -17.4230    32.8620    34.1630 H      4137  TIP3987     0.2052
 31323 H2         -17.6440    31.6360    33.3030 H      4137  TIP3987     0.2052
 31324 OH2         15.8550     0.7320   -51.2890 O.3    4138  TIP3988    -0.4105
 31325 H1          16.7020     0.2920   -51.3690 H      4138  TIP3988     0.2052
 31326 H2          15.9000     1.4540   -51.9170 H      4138  TIP3988     0.2052
 31327 OH2         28.5510    -9.3650    53.2090 O.3    4139  TIP3989    -0.4105
 31328 H1          28.6200    -8.5830    52.6610 H      4139  TIP3989     0.2052
 31329 H2          27.6920    -9.2920    53.6250 H      4139  TIP3989     0.2052
 31330 OH2        -26.8260   -24.3310   -51.4670 O.3    4140  TIP3990    -0.4105
 31331 H1         -27.7230   -24.0050   -51.4010 H      4140  TIP3990     0.2052
 31332 H2         -26.4140   -23.7690   -52.1230 H      4140  TIP3990     0.2052
 31333 OH2        -26.2810    18.9350    45.6350 O.3    4141  TIP3991    -0.4105
 31334 H1         -26.7000    19.7880    45.7440 H      4141  TIP3991     0.2052
 31335 H2         -26.2170    18.8170    44.6870 H      4141  TIP3991     0.2052
 31336 OH2        -29.9340   -10.4570   -21.5170 O.3    4142  TIP3992    -0.4105
 31337 H1         -30.7970   -10.2260   -21.8620 H      4142  TIP3992     0.2052
 31338 H2         -30.0850   -10.6240   -20.5870 H      4142  TIP3992     0.2052
 31339 OH2          0.0750     3.2550   -39.7850 O.3    4143  TIP3993    -0.4105
 31340 H1           0.2210     2.5250   -40.3870 H      4143  TIP3993     0.2052
 31341 H2          -0.3450     3.9280   -40.3210 H      4143  TIP3993     0.2052
 31342 OH2         25.8970   -28.5540    53.3990 O.3    4144  TIP3994    -0.4105
 31343 H1          26.3450   -29.3010    53.7950 H      4144  TIP3994     0.2052
 31344 H2          26.1650   -28.5720    52.4810 H      4144  TIP3994     0.2052
 31345 OH2         32.7500    -2.4470   -52.8410 O.3    4145  TIP3995    -0.4105
 31346 H1          32.8700    -2.5330   -53.7870 H      4145  TIP3995     0.2052
 31347 H2          31.9810    -2.9830   -52.6480 H      4145  TIP3995     0.2052
 31348 OH2          8.3480    -2.5930    45.2610 O.3    4146  TIP3996    -0.4105
 31349 H1           7.7510    -1.8910    45.0020 H      4146  TIP3996     0.2052
 31350 H2           9.2200    -2.2080    45.1830 H      4146  TIP3996     0.2052
 31351 OH2         26.3430    -0.6260    25.8820 O.3    4147  TIP3997    -0.4105
 31352 H1          25.8950     0.1820    26.1330 H      4147  TIP3997     0.2052
 31353 H2          25.6480    -1.2830    25.8410 H      4147  TIP3997     0.2052
 31354 OH2        -13.5580     1.2510   -31.3880 O.3    4148  TIP3998    -0.4105
 31355 H1         -13.6360     1.3400   -32.3380 H      4148  TIP3998     0.2052
 31356 H2         -12.6170     1.3010   -31.2190 H      4148  TIP3998     0.2052
 31357 OH2         25.6820   -24.4530    42.8650 O.3    4149  TIP3999    -0.4105
 31358 H1          25.9320   -23.6440    42.4200 H      4149  TIP3999     0.2052
 31359 H2          25.8360   -25.1410    42.2180 H      4149  TIP3999     0.2052
 31360 OH2          6.5610    -7.3060   -43.6640 O.3    4150  TIP4000    -0.4105
 31361 H1           6.8570    -6.4690   -43.3050 H      4150  TIP4000     0.2052
 31362 H2           6.0110    -7.0670   -44.4100 H      4150  TIP4000     0.2052
 31363 OH2          2.5710   -18.5970   -24.4470 O.3    4151  TIP4001    -0.4105
 31364 H1           3.0590   -17.7760   -24.5170 H      4151  TIP4001     0.2052
 31365 H2           1.7600   -18.4360   -24.9280 H      4151  TIP4001     0.2052
 31366 OH2         11.6090   -22.4000   -47.8130 O.3    4152  TIP4002    -0.4105
 31367 H1          11.5500   -22.1370   -48.7320 H      4152  TIP4002     0.2052
 31368 H2          12.0340   -23.2570   -47.8360 H      4152  TIP4002     0.2052
 31369 OH2         18.9810     2.1550   -49.5350 O.3    4153  TIP4003    -0.4105
 31370 H1          18.9040     1.2010   -49.4960 H      4153  TIP4003     0.2052
 31371 H2          18.7680     2.3750   -50.4420 H      4153  TIP4003     0.2052
 31372 OH2        -14.7480    33.0020    27.8250 O.3    4154  TIP4004    -0.4105
 31373 H1         -14.0260    32.4690    27.4910 H      4154  TIP4004     0.2052
 31374 H2         -14.3200    33.7410    28.2580 H      4154  TIP4004     0.2052
 31375 OH2         12.1090    32.9380    41.7920 O.3    4155  TIP4005    -0.4105
 31376 H1          12.3520    33.6030    42.4360 H      4155  TIP4005     0.2052
 31377 H2          11.1530    32.9060    41.8290 H      4155  TIP4005     0.2052
 31378 OH2        -14.7630    12.3620   -26.2950 O.3    4156  TIP4006    -0.4105
 31379 H1         -15.0410    13.2120   -25.9550 H      4156  TIP4006     0.2052
 31380 H2         -15.4700    12.0960   -26.8830 H      4156  TIP4006     0.2052
 31381 OH2         -8.0260    26.1590    13.9640 O.3    4157  TIP4007    -0.4105
 31382 H1          -8.7520    26.7770    14.0580 H      4157  TIP4007     0.2052
 31383 H2          -7.7780    26.2190    13.0420 H      4157  TIP4007     0.2052
 31384 OH2          2.7180    26.0180    52.2460 O.3    4158  TIP4008    -0.4105
 31385 H1           2.7110    26.4220    51.3790 H      4158  TIP4008     0.2052
 31386 H2           2.6400    25.0790    52.0740 H      4158  TIP4008     0.2052
 31387 OH2          5.4570     5.2900   -28.8770 O.3    4159  TIP4009    -0.4105
 31388 H1           4.7970     5.9280   -29.1480 H      4159  TIP4009     0.2052
 31389 H2           6.2690     5.5990   -29.2790 H      4159  TIP4009     0.2052
 31390 OH2         13.0600    30.2570   -26.6060 O.3    4160  TIP4010    -0.4105
 31391 H1          12.5600    31.0730   -26.6320 H      4160  TIP4010     0.2052
 31392 H2          12.5860    29.7050   -25.9840 H      4160  TIP4010     0.2052
 31393 OH2        -32.5300    27.7160   -25.6580 O.3    4161  TIP4011    -0.4105
 31394 H1         -32.1850    27.2250   -26.4040 H      4161  TIP4011     0.2052
 31395 H2         -33.1330    27.1090   -25.2300 H      4161  TIP4011     0.2052
 31396 OH2         26.0480    31.6270    35.1800 O.3    4162  TIP4012    -0.4105
 31397 H1          26.1660    30.7460    35.5350 H      4162  TIP4012     0.2052
 31398 H2          25.4130    31.5170    34.4720 H      4162  TIP4012     0.2052
 31399 OH2        -27.4650   -20.1860    15.7660 O.3    4163  TIP4013    -0.4105
 31400 H1         -26.8620   -20.8560    16.0880 H      4163  TIP4013     0.2052
 31401 H2         -26.9530   -19.3770    15.7770 H      4163  TIP4013     0.2052
 31402 OH2          4.9720   -24.4400    17.5550 O.3    4164  TIP4014    -0.4105
 31403 H1           5.3340   -23.7190    18.0710 H      4164  TIP4014     0.2052
 31404 H2           5.4690   -25.2090    17.8350 H      4164  TIP4014     0.2052
 31405 OH2         -5.0960   -25.4210    35.2830 O.3    4165  TIP4015    -0.4105
 31406 H1          -4.8290   -25.1210    34.4140 H      4165  TIP4015     0.2052
 31407 H2          -4.9760   -26.3700    35.2560 H      4165  TIP4015     0.2052
 31408 OH2         31.6360   -25.9730    41.8240 O.3    4166  TIP4016    -0.4105
 31409 H1          30.8080   -25.6980    42.2180 H      4166  TIP4016     0.2052
 31410 H2          31.8130   -26.8300    42.2110 H      4166  TIP4016     0.2052
 31411 OH2        -22.3150   -12.1070   -46.8960 O.3    4167  TIP4017    -0.4105
 31412 H1         -22.3050   -11.2720   -47.3640 H      4167  TIP4017     0.2052
 31413 H2         -21.6130   -12.6170   -47.3000 H      4167  TIP4017     0.2052
 31414 OH2         -0.7850    28.1930   -54.7720 O.3    4168  TIP4018    -0.4105
 31415 H1          -0.6050    28.5760   -53.9130 H      4168  TIP4018     0.2052
 31416 H2          -1.2670    27.3890   -54.5800 H      4168  TIP4018     0.2052
 31417 OH2        -29.6090    20.5440   -47.1410 O.3    4169  TIP4019    -0.4105
 31418 H1         -30.1040    20.6740   -46.3320 H      4169  TIP4019     0.2052
 31419 H2         -30.2510    20.6760   -47.8390 H      4169  TIP4019     0.2052
 31420 OH2        -10.2170   -30.1570    53.1900 O.3    4170  TIP4020    -0.4105
 31421 H1          -9.3850   -30.5010    52.8640 H      4170  TIP4020     0.2052
 31422 H2         -10.5730   -30.8630    53.7300 H      4170  TIP4020     0.2052
 31423 OH2         26.9310     6.2500   -26.0030 O.3    4171  TIP4021    -0.4105
 31424 H1          27.3270     7.0360   -26.3790 H      4171  TIP4021     0.2052
 31425 H2          27.3610     6.1470   -25.1540 H      4171  TIP4021     0.2052
 31426 OH2         27.0400     6.2650    47.6880 O.3    4172  TIP4022    -0.4105
 31427 H1          26.1680     5.9100    47.5140 H      4172  TIP4022     0.2052
 31428 H2          27.4420     6.3480    46.8230 H      4172  TIP4022     0.2052
 31429 OH2         29.0010     7.5440   -38.7260 O.3    4173  TIP4023    -0.4105
 31430 H1          28.8060     8.4060   -38.3570 H      4173  TIP4023     0.2052
 31431 H2          28.1960     7.2890   -39.1770 H      4173  TIP4023     0.2052
 31432 OH2         15.8920    24.3620   -48.5550 O.3    4174  TIP4024    -0.4105
 31433 H1          14.9960    24.1170   -48.3230 H      4174  TIP4024     0.2052
 31434 H2          16.2530    24.7390   -47.7540 H      4174  TIP4024     0.2052
 31435 OH2        -25.5370    -5.4900   -21.6680 O.3    4175  TIP4025    -0.4105
 31436 H1         -24.6050    -5.5060   -21.4500 H      4175  TIP4025     0.2052
 31437 H2         -25.9750    -5.3230   -20.8340 H      4175  TIP4025     0.2052
 31438 OH2        -13.2150    26.9380   -19.3290 O.3    4176  TIP4026    -0.4105
 31439 H1         -12.3240    26.6950   -19.5810 H      4176  TIP4026     0.2052
 31440 H2         -13.1470    27.1760   -18.4040 H      4176  TIP4026     0.2052
 31441 OH2         -9.3210    18.1630    52.9000 O.3    4177  TIP4027    -0.4105
 31442 H1          -9.3510    18.9860    53.3890 H      4177  TIP4027     0.2052
 31443 H2          -9.8150    17.5450    53.4390 H      4177  TIP4027     0.2052
 31444 OH2          2.5040    11.3860    42.5650 O.3    4178  TIP4028    -0.4105
 31445 H1           2.2820    10.4900    42.8180 H      4178  TIP4028     0.2052
 31446 H2           2.4380    11.3900    41.6100 H      4178  TIP4028     0.2052
 31447 OH2         10.4530    16.7880    21.9110 O.3    4179  TIP4029    -0.4105
 31448 H1          10.8230    17.1760    21.1180 H      4179  TIP4029     0.2052
 31449 H2           9.7020    17.3440    22.1220 H      4179  TIP4029     0.2052
 31450 OH2        -24.1360   -27.3800   -27.8170 O.3    4180  TIP4030    -0.4105
 31451 H1         -23.2660   -27.0080   -27.9620 H      4180  TIP4030     0.2052
 31452 H2         -24.2100   -27.4560   -26.8660 H      4180  TIP4030     0.2052
 31453 OH2        -28.2480    11.3690   -35.8720 O.3    4181  TIP4031    -0.4105
 31454 H1         -29.1880    11.5260   -35.9630 H      4181  TIP4031     0.2052
 31455 H2         -27.9540    12.0250   -35.2410 H      4181  TIP4031     0.2052
 31456 OH2         19.7760    27.5670   -46.8460 O.3    4182  TIP4032    -0.4105
 31457 H1          19.9500    26.9330   -47.5430 H      4182  TIP4032     0.2052
 31458 H2          18.9190    27.3160   -46.5020 H      4182  TIP4032     0.2052
 31459 OH2         28.6240   -30.6900   -35.4430 O.3    4183  TIP4033    -0.4105
 31460 H1          28.8810   -30.0000   -34.8310 H      4183  TIP4033     0.2052
 31461 H2          29.2060   -31.4220   -35.2390 H      4183  TIP4033     0.2052
 31462 OH2         12.6430    -6.5090   -17.5830 O.3    4184  TIP4034    -0.4105
 31463 H1          11.8120    -6.8970   -17.8600 H      4184  TIP4034     0.2052
 31464 H2          12.4200    -5.9950   -16.8070 H      4184  TIP4034     0.2052
 31465 OH2        -24.3510    22.0230   -25.6180 O.3    4185  TIP4035    -0.4105
 31466 H1         -23.7660    21.4480   -25.1240 H      4185  TIP4035     0.2052
 31467 H2         -24.6110    22.6980   -24.9910 H      4185  TIP4035     0.2052
 31468 OH2        -21.0630   -13.2020   -43.5090 O.3    4186  TIP4036    -0.4105
 31469 H1         -20.3400   -13.4120   -42.9180 H      4186  TIP4036     0.2052
 31470 H2         -21.1990   -12.2610   -43.3960 H      4186  TIP4036     0.2052
 31471 OH2          6.4100   -16.6510    39.6640 O.3    4187  TIP4037    -0.4105
 31472 H1           6.6520   -17.5240    39.9730 H      4187  TIP4037     0.2052
 31473 H2           7.2380   -16.2540    39.3950 H      4187  TIP4037     0.2052
 31474 OH2        -13.5190   -12.1700   -24.3390 O.3    4188  TIP4038    -0.4105
 31475 H1         -13.0620   -11.3960   -24.0110 H      4188  TIP4038     0.2052
 31476 H2         -12.8760   -12.8750   -24.2720 H      4188  TIP4038     0.2052
 31477 OH2        -21.3860    22.5780   -48.6000 O.3    4189  TIP4039    -0.4105
 31478 H1         -20.7150    21.9730   -48.2830 H      4189  TIP4039     0.2052
 31479 H2         -22.2090    22.2160   -48.2710 H      4189  TIP4039     0.2052
 31480 OH2        -19.0530    20.1010    30.5850 O.3    4190  TIP4040    -0.4105
 31481 H1         -18.1830    20.0650    30.9830 H      4190  TIP4040     0.2052
 31482 H2         -19.6360    19.7340    31.2490 H      4190  TIP4040     0.2052
 31483 OH2        -29.5570   -28.8350    37.2560 O.3    4191  TIP4041    -0.4105
 31484 H1         -30.2950   -28.2440    37.4080 H      4191  TIP4041     0.2052
 31485 H2         -29.9370   -29.5770    36.7860 H      4191  TIP4041     0.2052
 31486 OH2          1.0210    -5.1680    33.5270 O.3    4192  TIP4042    -0.4105
 31487 H1           0.9630    -5.9960    33.0500 H      4192  TIP4042     0.2052
 31488 H2           1.8250    -4.7620    33.2030 H      4192  TIP4042     0.2052
 31489 OH2         22.6400    -9.6470   -16.6730 O.3    4193  TIP4043    -0.4105
 31490 H1          22.2380    -8.9660   -17.2120 H      4193  TIP4043     0.2052
 31491 H2          23.0430    -9.1720   -15.9460 H      4193  TIP4043     0.2052
 31492 OH2         -1.0180    32.8330    47.5150 O.3    4194  TIP4044    -0.4105
 31493 H1          -0.5500    32.7250    48.3430 H      4194  TIP4044     0.2052
 31494 H2          -0.9790    31.9700    47.1030 H      4194  TIP4044     0.2052
 31495 OH2        -11.9450    14.2760    52.7090 O.3    4195  TIP4045    -0.4105
 31496 H1         -11.9030    13.5900    52.0430 H      4195  TIP4045     0.2052
 31497 H2         -11.1030    14.7260    52.6430 H      4195  TIP4045     0.2052
 31498 OH2         26.3250    -6.5900    31.5500 O.3    4196  TIP4046    -0.4105
 31499 H1          26.0840    -7.1950    32.2520 H      4196  TIP4046     0.2052
 31500 H2          26.5660    -5.7820    32.0020 H      4196  TIP4046     0.2052
 31501 OH2         -2.2960   -17.6780   -30.9890 O.3    4197  TIP4047    -0.4105
 31502 H1          -2.7530   -18.4800   -30.7320 H      4197  TIP4047     0.2052
 31503 H2          -2.6080   -17.4980   -31.8750 H      4197  TIP4047     0.2052
 31504 OH2          0.1290    -7.1230   -25.8200 O.3    4198  TIP4048    -0.4105
 31505 H1           0.2500    -7.1880   -24.8730 H      4198  TIP4048     0.2052
 31506 H2           0.9380    -6.7230   -26.1390 H      4198  TIP4048     0.2052
 31507 OH2         32.3330   -15.5100    40.2440 O.3    4199  TIP4049    -0.4105
 31508 H1          31.6190   -15.0600    40.6940 H      4199  TIP4049     0.2052
 31509 H2          31.8960   -16.1300    39.6600 H      4199  TIP4049     0.2052
 31510 OH2        -24.4920   -15.4330    19.1900 O.3    4200  TIP4050    -0.4105
 31511 H1         -23.6810   -15.0820    18.8230 H      4200  TIP4050     0.2052
 31512 H2         -24.4300   -16.3780    19.0490 H      4200  TIP4050     0.2052
 31513 OH2        -32.1300   -12.9160   -37.8060 O.3    4201  TIP4051    -0.4105
 31514 H1         -32.7880   -13.4770   -37.3940 H      4201  TIP4051     0.2052
 31515 H2         -32.5030   -12.0360   -37.7620 H      4201  TIP4051     0.2052
 31516 OH2         26.3770    -4.2000    48.4730 O.3    4202  TIP4052    -0.4105
 31517 H1          25.8460    -4.8780    48.8890 H      4202  TIP4052     0.2052
 31518 H2          26.0510    -3.3790    48.8420 H      4202  TIP4052     0.2052
 31519 OH2         23.1120    17.3140    31.1800 O.3    4203  TIP4053    -0.4105
 31520 H1          22.2980    17.6320    31.5710 H      4203  TIP4053     0.2052
 31521 H2          23.7410    17.3120    31.9020 H      4203  TIP4053     0.2052
 31522 OH2        -13.9120    24.2280    29.2760 O.3    4204  TIP4054    -0.4105
 31523 H1         -13.2040    24.5980    29.8030 H      4204  TIP4054     0.2052
 31524 H2         -13.7830    24.6010    28.4040 H      4204  TIP4054     0.2052
 31525 OH2        -15.2400    16.1220    45.2500 O.3    4205  TIP4055    -0.4105
 31526 H1         -15.4060    15.3590    45.8030 H      4205  TIP4055     0.2052
 31527 H2         -16.0720    16.5950    45.2380 H      4205  TIP4055     0.2052
 31528 OH2        -26.2420    28.0060   -52.0950 O.3    4206  TIP4056    -0.4105
 31529 H1         -26.5700    28.7090   -52.6560 H      4206  TIP4056     0.2052
 31530 H2         -26.0720    27.2790   -52.6950 H      4206  TIP4056     0.2052
 31531 OH2          3.9150   -17.5480    51.4000 O.3    4207  TIP4057    -0.4105
 31532 H1           4.0040   -18.4260    51.0280 H      4207  TIP4057     0.2052
 31533 H2           2.9700   -17.4060    51.4550 H      4207  TIP4057     0.2052
 31534 OH2        -13.4060    -0.3720   -29.0490 O.3    4208  TIP4058    -0.4105
 31535 H1         -13.6220    -0.0280   -29.9160 H      4208  TIP4058     0.2052
 31536 H2         -12.6720    -0.9660   -29.2030 H      4208  TIP4058     0.2052
 31537 OH2        -23.8170     5.8060   -37.6320 O.3    4209  TIP4059    -0.4105
 31538 H1         -24.6850     5.8150   -38.0360 H      4209  TIP4059     0.2052
 31539 H2         -23.4810     6.6920   -37.7660 H      4209  TIP4059     0.2052
 31540 OH2          9.4510    -4.4130    50.2440 O.3    4210  TIP4060    -0.4105
 31541 H1           8.5990    -4.6440    50.6150 H      4210  TIP4060     0.2052
 31542 H2           9.2670    -4.2090    49.3270 H      4210  TIP4060     0.2052
 31543 OH2         17.3070     3.2040    27.0890 O.3    4211  TIP4061    -0.4105
 31544 H1          17.4570     4.0990    27.3920 H      4211  TIP4061     0.2052
 31545 H2          16.7880     3.3040    26.2910 H      4211  TIP4061     0.2052
 31546 OH2         -0.8730    19.5390    38.3600 O.3    4212  TIP4062    -0.4105
 31547 H1           0.0820    19.4810    38.3150 H      4212  TIP4062     0.2052
 31548 H2          -1.0920    20.3020    37.8250 H      4212  TIP4062     0.2052
 31549 OH2         30.5380     1.3520    42.2050 O.3    4213  TIP4063    -0.4105
 31550 H1          29.7760     1.6950    42.6730 H      4213  TIP4063     0.2052
 31551 H2          31.1270     1.0490    42.8960 H      4213  TIP4063     0.2052
 31552 OH2         -3.3670   -22.4490    49.7540 O.3    4214  TIP4064    -0.4105
 31553 H1          -3.9930   -22.8690    49.1650 H      4214  TIP4064     0.2052
 31554 H2          -3.9100   -22.0360    50.4260 H      4214  TIP4064     0.2052
 31555 OH2         14.7890     4.2810    22.2140 O.3    4215  TIP4065    -0.4105
 31556 H1          14.0690     4.8960    22.3540 H      4215  TIP4065     0.2052
 31557 H2          15.0380     4.4080    21.2980 H      4215  TIP4065     0.2052
 31558 OH2         14.0250   -18.7490   -33.5090 O.3    4216  TIP4066    -0.4105
 31559 H1          13.6740   -19.6170   -33.7100 H      4216  TIP4066     0.2052
 31560 H2          13.6270   -18.1720   -34.1620 H      4216  TIP4066     0.2052
 31561 OH2        -31.0200   -25.5170   -53.7010 O.3    4217  TIP4067    -0.4105
 31562 H1         -31.3050   -24.6800   -54.0680 H      4217  TIP4067     0.2052
 31563 H2         -31.3590   -26.1730   -54.3110 H      4217  TIP4067     0.2052
 31564 OH2         -9.9330   -29.0140    36.1030 O.3    4218  TIP4068    -0.4105
 31565 H1         -10.2050   -29.5770    36.8270 H      4218  TIP4068     0.2052
 31566 H2          -8.9950   -28.8830    36.2400 H      4218  TIP4068     0.2052
 31567 OH2          9.1920    17.7320   -19.8450 O.3    4219  TIP4069    -0.4105
 31568 H1           9.0000    17.9400   -18.9310 H      4219  TIP4069     0.2052
 31569 H2           9.7330    18.4620   -20.1480 H      4219  TIP4069     0.2052
 31570 OH2         28.2800    -7.7690    51.1230 O.3    4220  TIP4070    -0.4105
 31571 H1          28.3440    -8.6970    50.8950 H      4220  TIP4070     0.2052
 31572 H2          28.0160    -7.3400    50.3090 H      4220  TIP4070     0.2052
 31573 OH2        -14.9700    25.4680    35.1570 O.3    4221  TIP4071    -0.4105
 31574 H1         -15.2490    25.0300    35.9610 H      4221  TIP4071     0.2052
 31575 H2         -14.0710    25.1690    35.0200 H      4221  TIP4071     0.2052
 31576 OH2          6.5110   -27.1210   -25.8070 O.3    4222  TIP4072    -0.4105
 31577 H1           5.6480   -27.2730   -25.4230 H      4222  TIP4072     0.2052
 31578 H2           6.3280   -26.7170   -26.6550 H      4222  TIP4072     0.2052
 31579 OH2          3.6690   -25.8750   -41.3530 O.3    4223  TIP4073    -0.4105
 31580 H1           2.8200   -26.1910   -41.6630 H      4223  TIP4073     0.2052
 31581 H2           3.5540   -25.7670   -40.4090 H      4223  TIP4073     0.2052
 31582 OH2        -16.1600    29.6820   -38.0270 O.3    4224  TIP4074    -0.4105
 31583 H1         -16.3690    29.6140   -38.9580 H      4224  TIP4074     0.2052
 31584 H2         -15.3450    29.1900   -37.9270 H      4224  TIP4074     0.2052
 31585 OH2        -14.6620    -5.2970   -31.6990 O.3    4225  TIP4075    -0.4105
 31586 H1         -13.7550    -5.5640   -31.5490 H      4225  TIP4075     0.2052
 31587 H2         -14.8480    -5.5730   -32.5960 H      4225  TIP4075     0.2052
 31588 OH2        -13.5090    24.1750   -31.8920 O.3    4226  TIP4076    -0.4105
 31589 H1         -14.3220    23.9600   -32.3490 H      4226  TIP4076     0.2052
 31590 H2         -12.8930    24.3980   -32.5890 H      4226  TIP4076     0.2052
 31591 OH2         19.3430    22.0960   -27.0400 O.3    4227  TIP4077    -0.4105
 31592 H1          18.9550    21.3110   -26.6520 H      4227  TIP4077     0.2052
 31593 H2          18.6020    22.6860   -27.1780 H      4227  TIP4077     0.2052
 31594 OH2        -12.8090    11.2820   -24.4840 O.3    4228  TIP4078    -0.4105
 31595 H1         -13.2000    10.9320   -23.6830 H      4228  TIP4078     0.2052
 31596 H2         -13.5150    11.2550   -25.1280 H      4228  TIP4078     0.2052
 31597 OH2         15.0960    -7.6890   -46.4810 O.3    4229  TIP4079    -0.4105
 31598 H1          15.5010    -8.2160   -47.1700 H      4229  TIP4079     0.2052
 31599 H2          15.0330    -6.8110   -46.8560 H      4229  TIP4079     0.2052
 31600 OH2         13.7990   -20.6470    36.4310 O.3    4230  TIP4080    -0.4105
 31601 H1          14.1090   -20.7840    37.3260 H      4230  TIP4080     0.2052
 31602 H2          14.5180   -20.1870    35.9960 H      4230  TIP4080     0.2052
 31603 OH2        -14.5420   -22.1330    31.0970 O.3    4231  TIP4081    -0.4105
 31604 H1         -13.6700   -21.9330    30.7570 H      4231  TIP4081     0.2052
 31605 H2         -14.9940   -21.2890    31.1110 H      4231  TIP4081     0.2052
 31606 OH2        -17.2400   -27.5400   -55.2650 O.3    4232  TIP4082    -0.4105
 31607 H1         -18.0730   -27.8290   -55.6370 H      4232  TIP4082     0.2052
 31608 H2         -16.5860   -27.7840   -55.9210 H      4232  TIP4082     0.2052
 31609 OH2          8.9520    -6.2030   -46.9160 O.3    4233  TIP4083    -0.4105
 31610 H1           9.5740    -6.3660   -47.6250 H      4233  TIP4083     0.2052
 31611 H2           8.9320    -7.0230   -46.4220 H      4233  TIP4083     0.2052
 31612 OH2        -28.8930    12.7200   -49.8250 O.3    4234  TIP4084    -0.4105
 31613 H1         -28.6150    13.5320   -49.4020 H      4234  TIP4084     0.2052
 31614 H2         -29.8470    12.7900   -49.8750 H      4234  TIP4084     0.2052
 31615 OH2          3.9050    -0.1330   -12.2910 O.3    4235  TIP4085    -0.4105
 31616 H1           3.6650    -0.8030   -11.6500 H      4235  TIP4085     0.2052
 31617 H2           4.8320     0.0360   -12.1260 H      4235  TIP4085     0.2052
 31618 OH2          5.7560    20.6840   -54.6510 O.3    4236  TIP4086    -0.4105
 31619 H1           5.6680    20.6640   -55.6040 H      4236  TIP4086     0.2052
 31620 H2           4.9850    21.1660   -54.3490 H      4236  TIP4086     0.2052
 31621 OH2        -23.4880    29.0960   -41.0500 O.3    4237  TIP4087    -0.4105
 31622 H1         -23.2130    30.0040   -41.1780 H      4237  TIP4087     0.2052
 31623 H2         -24.3780    29.1610   -40.7040 H      4237  TIP4087     0.2052
 31624 OH2         11.7270    -8.6740   -19.3960 O.3    4238  TIP4088    -0.4105
 31625 H1          11.1560    -8.3950   -18.6800 H      4238  TIP4088     0.2052
 31626 H2          12.4480    -9.1320   -18.9640 H      4238  TIP4088     0.2052
 31627 OH2         22.7340   -32.6170    46.9730 O.3    4239  TIP4089    -0.4105
 31628 H1          23.3160   -32.0900    46.4250 H      4239  TIP4089     0.2052
 31629 H2          22.6790   -33.4600    46.5230 H      4239  TIP4089     0.2052
 31630 OH2        -27.4480    21.3100    45.3920 O.3    4240  TIP4090    -0.4105
 31631 H1         -28.3130    21.7050    45.2860 H      4240  TIP4090     0.2052
 31632 H2         -26.8860    22.0330    45.6730 H      4240  TIP4090     0.2052
 31633 OH2        -12.6090   -23.0370    48.8140 O.3    4241  TIP4091    -0.4105
 31634 H1         -13.3310   -23.5420    49.1890 H      4241  TIP4091     0.2052
 31635 H2         -11.8460   -23.2870    49.3350 H      4241  TIP4091     0.2052
 31636 OH2         -0.8980    13.5650    33.4420 O.3    4242  TIP4092    -0.4105
 31637 H1          -1.4190    13.8320    32.6850 H      4242  TIP4092     0.2052
 31638 H2          -0.8450    14.3510    33.9860 H      4242  TIP4092     0.2052
 31639 OH2         15.2080    28.3770   -43.8880 O.3    4243  TIP4093    -0.4105
 31640 H1          15.9370    28.9750   -44.0510 H      4243  TIP4093     0.2052
 31641 H2          15.1800    28.2850   -42.9360 H      4243  TIP4093     0.2052
 31642 OH2         18.0650   -26.9530    52.9140 O.3    4244  TIP4094    -0.4105
 31643 H1          19.0010   -26.9890    52.7150 H      4244  TIP4094     0.2052
 31644 H2          17.6880   -26.4380    52.2000 H      4244  TIP4094     0.2052
 31645 OH2        -29.6570     3.8070   -44.1130 O.3    4245  TIP4095    -0.4105
 31646 H1         -29.0330     4.1100   -44.7730 H      4245  TIP4095     0.2052
 31647 H2         -29.1100     3.4580   -43.4090 H      4245  TIP4095     0.2052
 31648 OH2        -12.8230    10.8700    36.9950 O.3    4246  TIP4096    -0.4105
 31649 H1         -13.6010    10.3120    36.9760 H      4246  TIP4096     0.2052
 31650 H2         -12.9230    11.4470    36.2380 H      4246  TIP4096     0.2052
 31651 OH2        -19.3670    10.0120    23.6800 O.3    4247  TIP4097    -0.4105
 31652 H1         -19.8670     9.7630    24.4580 H      4247  TIP4097     0.2052
 31653 H2         -19.0980     9.1790    23.2910 H      4247  TIP4097     0.2052
 31654 OH2         26.0970     9.4940    41.8490 O.3    4248  TIP4098    -0.4105
 31655 H1          25.4240     9.2760    41.2050 H      4248  TIP4098     0.2052
 31656 H2          26.5650    10.2360    41.4660 H      4248  TIP4098     0.2052
 31657 OH2        -22.3250   -15.3010   -30.9830 O.3    4249  TIP4099    -0.4105
 31658 H1         -21.6040   -15.9180   -30.8530 H      4249  TIP4099     0.2052
 31659 H2         -22.7170   -15.2050   -30.1150 H      4249  TIP4099     0.2052
 31660 OH2        -12.2850    22.6690   -29.9970 O.3    4250  TIP4100    -0.4105
 31661 H1         -12.1100    23.3440   -29.3410 H      4250  TIP4100     0.2052
 31662 H2         -12.1560    23.1120   -30.8360 H      4250  TIP4100     0.2052
 31663 OH2        -24.0280   -18.7560   -51.2480 O.3    4251  TIP4101    -0.4105
 31664 H1         -24.7300   -19.4030   -51.3120 H      4251  TIP4101     0.2052
 31665 H2         -24.2830   -18.1970   -50.5150 H      4251  TIP4101     0.2052
 31666 OH2         -0.8360    -3.8020    29.5700 O.3    4252  TIP4102    -0.4105
 31667 H1          -1.1860    -3.0240    29.1350 H      4252  TIP4102     0.2052
 31668 H2          -1.6080    -4.2520    29.9130 H      4252  TIP4102     0.2052
 31669 OH2        -13.6110     1.1000    35.0670 O.3    4253  TIP4103    -0.4105
 31670 H1         -13.8410     1.9410    34.6730 H      4253  TIP4103     0.2052
 31671 H2         -14.4520     0.6980    35.2820 H      4253  TIP4103     0.2052
 31672 OH2          3.8500    32.4990   -46.9730 O.3    4254  TIP4104    -0.4105
 31673 H1           3.1040    33.0630   -47.1760 H      4254  TIP4104     0.2052
 31674 H2           3.4570    31.6930   -46.6370 H      4254  TIP4104     0.2052
 31675 OH2         -2.1800     4.6960   -19.5960 O.3    4255  TIP4105    -0.4105
 31676 H1          -3.1020     4.6170   -19.3500 H      4255  TIP4105     0.2052
 31677 H2          -1.8700     3.7930   -19.6610 H      4255  TIP4105     0.2052
 31678 OH2        -10.3640   -13.7750    54.9430 O.3    4256  TIP4106    -0.4105
 31679 H1         -10.7990   -13.0470    54.4980 H      4256  TIP4106     0.2052
 31680 H2          -9.5290   -13.4100    55.2380 H      4256  TIP4106     0.2052
 31681 OH2        -10.7180     1.9320   -49.9740 O.3    4257  TIP4107    -0.4105
 31682 H1         -10.4770     2.8040   -50.2890 H      4257  TIP4107     0.2052
 31683 H2          -9.9600     1.3850   -50.1770 H      4257  TIP4107     0.2052
 31684 OH2        -22.5210    27.1330    37.7400 O.3    4258  TIP4108    -0.4105
 31685 H1         -22.2800    27.6960    37.0050 H      4258  TIP4108     0.2052
 31686 H2         -21.9220    26.3890    37.6790 H      4258  TIP4108     0.2052
 31687 OH2        -20.6600    -4.8780   -39.6850 O.3    4259  TIP4109    -0.4105
 31688 H1         -20.3360    -5.1620   -40.5400 H      4259  TIP4109     0.2052
 31689 H2         -21.3140    -4.2090   -39.8860 H      4259  TIP4109     0.2052
 31690 OH2          1.1040    10.2860   -42.8990 O.3    4260  TIP4110    -0.4105
 31691 H1           0.8150    11.0240   -43.4350 H      4260  TIP4110     0.2052
 31692 H2           0.2930     9.8720   -42.6030 H      4260  TIP4110     0.2052
 31693 OH2        -30.3130     2.6650   -29.8660 O.3    4261  TIP4111    -0.4105
 31694 H1         -30.3110     2.8110   -30.8120 H      4261  TIP4111     0.2052
 31695 H2         -29.5560     2.1010   -29.7080 H      4261  TIP4111     0.2052
 31696 OH2        -31.1750     9.1090   -42.7770 O.3    4262  TIP4112    -0.4105
 31697 H1         -30.7650     8.4000   -42.2820 H      4262  TIP4112     0.2052
 31698 H2         -32.1150     8.9520   -42.6880 H      4262  TIP4112     0.2052
 31699 OH2        -28.2750    -8.7610    43.9080 O.3    4263  TIP4113    -0.4105
 31700 H1         -28.5340    -8.7800    44.8300 H      4263  TIP4113     0.2052
 31701 H2         -28.0130    -7.8540    43.7510 H      4263  TIP4113     0.2052
 31702 OH2         10.9120    22.2920    37.5720 O.3    4264  TIP4114    -0.4105
 31703 H1          10.9300    21.5670    36.9480 H      4264  TIP4114     0.2052
 31704 H2          11.8340    22.4810    37.7480 H      4264  TIP4114     0.2052
 31705 OH2        -10.6450     4.4220   -44.1900 O.3    4265  TIP4115    -0.4105
 31706 H1         -10.6100     4.3750   -43.2350 H      4265  TIP4115     0.2052
 31707 H2          -9.8410     3.9930   -44.4820 H      4265  TIP4115     0.2052
 31708 OH2          6.9720   -18.5780   -47.0810 O.3    4266  TIP4116    -0.4105
 31709 H1           7.3510   -19.3620   -47.4770 H      4266  TIP4116     0.2052
 31710 H2           7.1480   -18.6730   -46.1450 H      4266  TIP4116     0.2052
 31711 OH2        -22.8350    12.8920   -37.9530 O.3    4267  TIP4117    -0.4105
 31712 H1         -22.5180    13.6460   -38.4510 H      4267  TIP4117     0.2052
 31713 H2         -22.1070    12.6620   -37.3760 H      4267  TIP4117     0.2052
 31714 OH2        -23.9710   -24.8410   -41.5990 O.3    4268  TIP4118    -0.4105
 31715 H1         -24.0930   -25.7050   -41.2050 H      4268  TIP4118     0.2052
 31716 H2         -23.0980   -24.5700   -41.3170 H      4268  TIP4118     0.2052
 31717 OH2         29.5350     6.7730    45.6860 O.3    4269  TIP4119    -0.4105
 31718 H1          29.5520     6.7500    44.7290 H      4269  TIP4119     0.2052
 31719 H2          29.3470     7.6870    45.9010 H      4269  TIP4119     0.2052
 31720 OH2         14.4060    -2.2090    38.0510 O.3    4270  TIP4120    -0.4105
 31721 H1          13.6710    -1.8820    37.5320 H      4270  TIP4120     0.2052
 31722 H2          15.1840    -1.9180    37.5750 H      4270  TIP4120     0.2052
 31723 OH2        -15.1970   -27.7850   -29.1580 O.3    4271  TIP4121    -0.4105
 31724 H1         -15.5430   -28.3840   -29.8200 H      4271  TIP4121     0.2052
 31725 H2         -15.9370   -27.6200   -28.5740 H      4271  TIP4121     0.2052
 31726 OH2        -32.9080    28.3080    18.1060 O.3    4272  TIP4122    -0.4105
 31727 H1         -32.6420    27.3990    17.9680 H      4272  TIP4122     0.2052
 31728 H2         -33.8620    28.2720    18.1730 H      4272  TIP4122     0.2052
 31729 OH2        -28.1550    10.2650   -52.9680 O.3    4273  TIP4123    -0.4105
 31730 H1         -28.8470     9.9650   -52.3790 H      4273  TIP4123     0.2052
 31731 H2         -27.3490    10.1700   -52.4600 H      4273  TIP4123     0.2052
 31732 OH2         21.4590    23.1170   -28.4740 O.3    4274  TIP4124    -0.4105
 31733 H1          20.7080    22.8340   -27.9520 H      4274  TIP4124     0.2052
 31734 H2          21.6600    22.3670   -29.0330 H      4274  TIP4124     0.2052
 31735 OH2         32.8810    20.2450    32.3220 O.3    4275  TIP4125    -0.4105
 31736 H1          32.3750    19.7450    31.6820 H      4275  TIP4125     0.2052
 31737 H2          32.2270    20.5840    32.9330 H      4275  TIP4125     0.2052
 31738 OH2         12.4750   -20.7830   -29.6770 O.3    4276  TIP4126    -0.4105
 31739 H1          12.9090   -19.9330   -29.6080 H      4276  TIP4126     0.2052
 31740 H2          11.5950   -20.5790   -29.9930 H      4276  TIP4126     0.2052
 31741 OH2         27.5570    25.2930   -55.3630 O.3    4277  TIP4127    -0.4105
 31742 H1          26.8540    25.7420   -55.8320 H      4277  TIP4127     0.2052
 31743 H2          27.8370    24.5980   -55.9580 H      4277  TIP4127     0.2052
 31744 OH2        -16.0090     4.6840   -40.6330 O.3    4278  TIP4128    -0.4105
 31745 H1         -16.6470     4.7150   -39.9200 H      4278  TIP4128     0.2052
 31746 H2         -15.9430     3.7560   -40.8560 H      4278  TIP4128     0.2052
 31747 OH2        -16.6290    26.2880   -52.0700 O.3    4279  TIP4129    -0.4105
 31748 H1         -16.1360    25.7960   -51.4120 H      4279  TIP4129     0.2052
 31749 H2         -15.9750    26.5350   -52.7240 H      4279  TIP4129     0.2052
 31750 OH2        -21.7200    13.4180   -31.9500 O.3    4280  TIP4130    -0.4105
 31751 H1         -22.3840    13.4290   -32.6400 H      4280  TIP4130     0.2052
 31752 H2         -22.1810    13.0900   -31.1780 H      4280  TIP4130     0.2052
 31753 OH2         -4.6550     6.3760    42.2950 O.3    4281  TIP4131    -0.4105
 31754 H1          -4.4450     7.3100    42.3030 H      4281  TIP4131     0.2052
 31755 H2          -4.6680     6.1410    41.3670 H      4281  TIP4131     0.2052
 31756 OH2        -31.5280   -22.0270    51.9240 O.3    4282  TIP4132    -0.4105
 31757 H1         -32.2670   -22.6160    52.0780 H      4282  TIP4132     0.2052
 31758 H2         -30.8360   -22.5940    51.5860 H      4282  TIP4132     0.2052
 31759 OH2         -6.2070     4.9640   -37.8540 O.3    4283  TIP4133    -0.4105
 31760 H1          -5.4770     4.7580   -37.2710 H      4283  TIP4133     0.2052
 31761 H2          -5.8810     5.6750   -38.4060 H      4283  TIP4133     0.2052
 31762 OH2         19.7200   -16.0780    38.9890 O.3    4284  TIP4134    -0.4105
 31763 H1          19.3770   -15.3140    38.5250 H      4284  TIP4134     0.2052
 31764 H2          19.7070   -15.8240    39.9120 H      4284  TIP4134     0.2052
 31765 OH2         11.2480    28.6710   -24.9740 O.3    4285  TIP4135    -0.4105
 31766 H1          10.3160    28.7000   -24.7580 H      4285  TIP4135     0.2052
 31767 H2          11.6830    28.4970   -24.1390 H      4285  TIP4135     0.2052
 31768 OH2         29.0200    -8.2660   -44.9780 O.3    4286  TIP4136    -0.4105
 31769 H1          29.6450    -8.0650   -45.6740 H      4286  TIP4136     0.2052
 31770 H2          28.2140    -7.8210   -45.2430 H      4286  TIP4136     0.2052
 31771 OH2         10.6310    -0.6760    34.4230 O.3    4287  TIP4137    -0.4105
 31772 H1          11.0240     0.1760    34.2330 H      4287  TIP4137     0.2052
 31773 H2          11.0510    -1.2760    33.8060 H      4287  TIP4137     0.2052
 31774 OH2         -1.4260    -1.0710    32.7840 O.3    4288  TIP4138    -0.4105
 31775 H1          -1.7250    -1.4950    31.9790 H      4288  TIP4138     0.2052
 31776 H2          -1.3480    -0.1460    32.5530 H      4288  TIP4138     0.2052
 31777 OH2         30.1180     3.5750   -50.0230 O.3    4289  TIP4139    -0.4105
 31778 H1          30.8540     4.1250   -49.7540 H      4289  TIP4139     0.2052
 31779 H2          29.6370     4.1100   -50.6540 H      4289  TIP4139     0.2052
 31780 OH2         -9.7560    12.6550   -54.9250 O.3    4290  TIP4140    -0.4105
 31781 H1         -10.5290    12.1120   -55.0810 H      4290  TIP4140     0.2052
 31782 H2          -9.0700    12.0320   -54.6840 H      4290  TIP4140     0.2052
 31783 OH2         -2.4460    19.1250    30.6480 O.3    4291  TIP4141    -0.4105
 31784 H1          -1.9420    18.4840    31.1480 H      4291  TIP4141     0.2052
 31785 H2          -1.9760    19.2040    29.8170 H      4291  TIP4141     0.2052
 31786 OH2        -15.8100   -32.2970    40.1580 O.3    4292  TIP4142    -0.4105
 31787 H1         -15.7010   -31.9240    41.0330 H      4292  TIP4142     0.2052
 31788 H2         -15.0200   -32.8190    40.0200 H      4292  TIP4142     0.2052
 31789 OH2        -13.5170    12.2340   -38.8960 O.3    4293  TIP4143    -0.4105
 31790 H1         -14.1210    12.3110   -39.6340 H      4293  TIP4143     0.2052
 31791 H2         -13.1330    13.1060   -38.8080 H      4293  TIP4143     0.2052
 31792 OH2        -20.6660    20.4000   -41.2740 O.3    4294  TIP4144    -0.4105
 31793 H1         -21.2770    20.8070   -40.6600 H      4294  TIP4144     0.2052
 31794 H2         -21.0690    20.5280   -42.1330 H      4294  TIP4144     0.2052
 31795 OH2         18.4780    -4.0880    25.6440 O.3    4295  TIP4145    -0.4105
 31796 H1          18.7260    -5.0010    25.5030 H      4295  TIP4145     0.2052
 31797 H2          19.3100    -3.6160    25.6840 H      4295  TIP4145     0.2052
 31798 OH2         32.4040   -25.4300    24.6080 O.3    4296  TIP4146    -0.4105
 31799 H1          33.2220   -25.5460    24.1250 H      4296  TIP4146     0.2052
 31800 H2          31.7210   -25.4920    23.9410 H      4296  TIP4146     0.2052
 31801 OH2        -12.8160    -5.5530   -37.1890 O.3    4297  TIP4147    -0.4105
 31802 H1         -13.4220    -5.0890   -36.6110 H      4297  TIP4147     0.2052
 31803 H2         -13.2090    -6.4180   -37.3040 H      4297  TIP4147     0.2052
 31804 OH2          8.8330    -0.9430    49.2870 O.3    4298  TIP4148    -0.4105
 31805 H1           8.9290    -0.4770    50.1170 H      4298  TIP4148     0.2052
 31806 H2           7.9530    -1.3190    49.3230 H      4298  TIP4148     0.2052
 31807 OH2          9.0540   -19.8770    54.9610 O.3    4299  TIP4149    -0.4105
 31808 H1           8.6090   -20.6550    55.2970 H      4299  TIP4149     0.2052
 31809 H2           8.8820   -19.2010    55.6160 H      4299  TIP4149     0.2052
 31810 OH2         26.8300    28.1000   -22.0630 O.3    4300  TIP4150    -0.4105
 31811 H1          27.5630    27.9990   -21.4550 H      4300  TIP4150     0.2052
 31812 H2          26.3110    27.3040   -21.9490 H      4300  TIP4150     0.2052
 31813 OH2         23.4580     9.3360    35.9450 O.3    4301  TIP4151    -0.4105
 31814 H1          22.8390     8.6140    36.0520 H      4301  TIP4151     0.2052
 31815 H2          23.1730     9.9930    36.5810 H      4301  TIP4151     0.2052
 31816 OH2        -11.2030    24.8250    32.2500 O.3    4302  TIP4152    -0.4105
 31817 H1         -11.6720    25.0640    31.4510 H      4302  TIP4152     0.2052
 31818 H2         -10.5800    24.1530    31.9710 H      4302  TIP4152     0.2052
 31819 OH2        -11.0780     0.9200   -33.5760 O.3    4303  TIP4153    -0.4105
 31820 H1         -10.4960     0.1610   -33.6240 H      4303  TIP4153     0.2052
 31821 H2         -10.8260     1.3640   -32.7660 H      4303  TIP4153     0.2052
 31822 OH2         26.5610   -32.0720   -39.3400 O.3    4304  TIP4154    -0.4105
 31823 H1          26.9700   -31.3290   -38.8950 H      4304  TIP4154     0.2052
 31824 H2          27.2800   -32.4940   -39.8110 H      4304  TIP4154     0.2052
 31825 OH2        -30.1980    22.8400    38.0120 O.3    4305  TIP4155    -0.4105
 31826 H1         -30.6710    22.5760    38.8010 H      4305  TIP4155     0.2052
 31827 H2         -29.4420    23.3290    38.3370 H      4305  TIP4155     0.2052
 31828 OH2         22.0700    22.5870   -16.1110 O.3    4306  TIP4156    -0.4105
 31829 H1          21.3910    22.2150   -15.5480 H      4306  TIP4156     0.2052
 31830 H2          21.7780    23.4830   -16.2790 H      4306  TIP4156     0.2052
 31831 OH2        -27.4950    27.1620    22.9830 O.3    4307  TIP4157    -0.4105
 31832 H1         -27.8040    27.7520    22.2950 H      4307  TIP4157     0.2052
 31833 H2         -27.5380    26.2910    22.5900 H      4307  TIP4157     0.2052
 31834 OH2         -9.3380    31.5810   -30.6090 O.3    4308  TIP4158    -0.4105
 31835 H1          -9.7940    32.1680   -31.2110 H      4308  TIP4158     0.2052
 31836 H2          -8.9230    30.9300   -31.1750 H      4308  TIP4158     0.2052
 31837 OH2         30.7410    16.2620   -53.9040 O.3    4309  TIP4159    -0.4105
 31838 H1          31.1060    16.4940   -54.7570 H      4309  TIP4159     0.2052
 31839 H2          30.3380    15.4040   -54.0400 H      4309  TIP4159     0.2052
 31840 OH2          9.7050   -12.0550    36.9130 O.3    4310  TIP4160    -0.4105
 31841 H1           9.2470   -12.7090    36.3850 H      4310  TIP4160     0.2052
 31842 H2          10.4510   -11.7910    36.3740 H      4310  TIP4160     0.2052
 31843 OH2         26.8130    10.2130   -41.6190 O.3    4311  TIP4161    -0.4105
 31844 H1          27.6920    10.5540   -41.7840 H      4311  TIP4161     0.2052
 31845 H2          26.2520    10.9890   -41.6110 H      4311  TIP4161     0.2052
 31846 OH2        -32.8200    -8.5380   -30.7280 O.3    4312  TIP4162    -0.4105
 31847 H1         -32.9120    -8.5870   -29.7770 H      4312  TIP4162     0.2052
 31848 H2         -32.6640    -9.4420   -31.0010 H      4312  TIP4162     0.2052
 31849 OH2         15.8840   -11.4280   -25.6220 O.3    4313  TIP4163    -0.4105
 31850 H1          15.6820   -11.4730   -24.6870 H      4313  TIP4163     0.2052
 31851 H2          15.6650   -12.2980   -25.9570 H      4313  TIP4163     0.2052
 31852 OH2          0.2390   -24.5570    31.3350 O.3    4314  TIP4164    -0.4105
 31853 H1          -0.5130   -24.8410    30.8140 H      4314  TIP4164     0.2052
 31854 H2           0.0540   -24.8790    32.2170 H      4314  TIP4164     0.2052
 31855 OH2         20.1090    32.4050    53.5370 O.3    4315  TIP4165    -0.4105
 31856 H1          19.3020    32.0460    53.9060 H      4315  TIP4165     0.2052
 31857 H2          19.9570    33.3500    53.5040 H      4315  TIP4165     0.2052
 31858 OH2         -5.7280    -7.6590    21.9830 O.3    4316  TIP4166    -0.4105
 31859 H1          -4.9430    -7.8740    22.4880 H      4316  TIP4166     0.2052
 31860 H2          -5.7430    -6.7020    21.9600 H      4316  TIP4166     0.2052
 31861 OH2         28.6980    -6.0740    28.0030 O.3    4317  TIP4167    -0.4105
 31862 H1          28.7240    -6.1600    27.0500 H      4317  TIP4167     0.2052
 31863 H2          28.6580    -6.9750    28.3240 H      4317  TIP4167     0.2052
 31864 OH2         23.9060     3.7400    47.4110 O.3    4318  TIP4168    -0.4105
 31865 H1          24.2120     3.2560    48.1780 H      4318  TIP4168     0.2052
 31866 H2          23.3420     3.1220    46.9460 H      4318  TIP4168     0.2052
 31867 OH2        -12.9880    -4.3460    43.9240 O.3    4319  TIP4169    -0.4105
 31868 H1         -13.9260    -4.2660    44.0960 H      4319  TIP4169     0.2052
 31869 H2         -12.7210    -3.4730    43.6370 H      4319  TIP4169     0.2052
 31870 OH2         -6.4920   -20.2040   -49.6950 O.3    4320  TIP4170    -0.4105
 31871 H1          -5.7810   -19.5640   -49.7000 H      4320  TIP4170     0.2052
 31872 H2          -7.1540   -19.8320   -50.2780 H      4320  TIP4170     0.2052
 31873 OH2         25.0560    26.8600    19.7180 O.3    4321  TIP4171    -0.4105
 31874 H1          24.8980    27.6480    19.1990 H      4321  TIP4171     0.2052
 31875 H2          24.1940    26.6210    20.0590 H      4321  TIP4171     0.2052
 31876 OH2        -31.7850   -22.2120    44.6130 O.3    4322  TIP4172    -0.4105
 31877 H1         -31.9960   -23.0580    45.0080 H      4322  TIP4172     0.2052
 31878 H2         -32.4690   -22.0770    43.9560 H      4322  TIP4172     0.2052
 31879 OH2         15.9470   -22.2050    45.7410 O.3    4323  TIP4173    -0.4105
 31880 H1          15.0800   -21.8120    45.6370 H      4323  TIP4173     0.2052
 31881 H2          15.9270   -22.9810    45.1810 H      4323  TIP4173     0.2052
 31882 OH2          8.7920    13.7970    31.8540 O.3    4324  TIP4174    -0.4105
 31883 H1           8.0470    14.3160    31.5500 H      4324  TIP4174     0.2052
 31884 H2           8.5350    13.4980    32.7260 H      4324  TIP4174     0.2052
 31885 OH2        -26.8040    13.9280   -42.3220 O.3    4325  TIP4175    -0.4105
 31886 H1         -26.2280    13.1630   -42.3450 H      4325  TIP4175     0.2052
 31887 H2         -26.5080    14.4280   -41.5610 H      4325  TIP4175     0.2052
 31888 OH2         31.4920    14.1620   -35.5450 O.3    4326  TIP4176    -0.4105
 31889 H1          31.9630    13.3530   -35.7410 H      4326  TIP4176     0.2052
 31890 H2          30.5680    13.9350   -35.6540 H      4326  TIP4176     0.2052
 31891 OH2        -25.1260   -25.2890   -35.2900 O.3    4327  TIP4177    -0.4105
 31892 H1         -25.7030   -24.9570   -35.9780 H      4327  TIP4177     0.2052
 31893 H2         -24.3030   -24.8170   -35.4180 H      4327  TIP4177     0.2052
 31894 OH2          5.5380    -1.0080   -28.4860 O.3    4328  TIP4178    -0.4105
 31895 H1           5.3120    -0.2920   -29.0800 H      4328  TIP4178     0.2052
 31896 H2           6.0950    -1.5860   -29.0080 H      4328  TIP4178     0.2052
 31897 OH2         -4.7320    -9.2440    44.1990 O.3    4329  TIP4179    -0.4105
 31898 H1          -4.4070    -9.5330    45.0520 H      4329  TIP4179     0.2052
 31899 H2          -4.0450    -8.6670    43.8640 H      4329  TIP4179     0.2052
 31900 OH2         28.0090    12.1790   -49.4690 O.3    4330  TIP4180    -0.4105
 31901 H1          28.4180    12.3000   -48.6110 H      4330  TIP4180     0.2052
 31902 H2          28.2210    12.9790   -49.9500 H      4330  TIP4180     0.2052
 31903 OH2         23.5720    -1.4800    26.4420 O.3    4331  TIP4181    -0.4105
 31904 H1          22.8060    -1.0980    26.8710 H      4331  TIP4181     0.2052
 31905 H2          23.6580    -2.3480    26.8340 H      4331  TIP4181     0.2052
 31906 OH2        -17.4150   -26.3830   -44.3570 O.3    4332  TIP4182    -0.4105
 31907 H1         -17.5970   -27.3220   -44.4060 H      4332  TIP4182     0.2052
 31908 H2         -17.6770   -26.0430   -45.2120 H      4332  TIP4182     0.2052
 31909 OH2         -3.0070    31.8960   -50.7340 O.3    4333  TIP4183    -0.4105
 31910 H1          -3.5860    32.4990   -50.2680 H      4333  TIP4183     0.2052
 31911 H2          -3.5380    31.1110   -50.8710 H      4333  TIP4183     0.2052
 31912 OH2        -25.9370    28.5410    36.3810 O.3    4334  TIP4184    -0.4105
 31913 H1         -26.4780    29.1640    35.8960 H      4334  TIP4184     0.2052
 31914 H2         -26.0540    27.7110    35.9190 H      4334  TIP4184     0.2052
 31915 OH2          5.8660     7.8010   -50.1360 O.3    4335  TIP4185    -0.4105
 31916 H1           6.1180     8.7080   -50.3130 H      4335  TIP4185     0.2052
 31917 H2           6.6930     7.3190   -50.1360 H      4335  TIP4185     0.2052
 31918 OH2        -32.6390   -32.3600   -53.8820 O.3    4336  TIP4186    -0.4105
 31919 H1         -33.0000   -31.8060   -53.1900 H      4336  TIP4186     0.2052
 31920 H2         -33.3340   -32.4080   -54.5390 H      4336  TIP4186     0.2052
 31921 OH2         20.2580    -2.4570    18.6660 O.3    4337  TIP4187    -0.4105
 31922 H1          19.4710    -2.2290    18.1720 H      4337  TIP4187     0.2052
 31923 H2          20.0090    -3.2310    19.1710 H      4337  TIP4187     0.2052
 31924 OH2          6.7800    19.3080   -39.7260 O.3    4338  TIP4188    -0.4105
 31925 H1           7.3880    19.5920   -40.4090 H      4338  TIP4188     0.2052
 31926 H2           6.0640    19.9420   -39.7650 H      4338  TIP4188     0.2052
 31927 OH2        -30.5230    -4.0340   -24.1250 O.3    4339  TIP4189    -0.4105
 31928 H1         -30.4780    -3.3210   -23.4870 H      4339  TIP4189     0.2052
 31929 H2         -30.8710    -3.6250   -24.9170 H      4339  TIP4189     0.2052
 31930 OH2         12.6210   -14.0430    33.2140 O.3    4340  TIP4190    -0.4105
 31931 H1          12.8300   -13.3390    32.6000 H      4340  TIP4190     0.2052
 31932 H2          11.6650   -14.0840    33.2160 H      4340  TIP4190     0.2052
 31933 OH2         22.5600    11.5250   -31.0210 O.3    4341  TIP4191    -0.4105
 31934 H1          22.5480    11.1070   -31.8810 H      4341  TIP4191     0.2052
 31935 H2          21.9940    12.2900   -31.1170 H      4341  TIP4191     0.2052
 31936 OH2          8.6840    -1.9690   -12.3990 O.3    4342  TIP4192    -0.4105
 31937 H1           9.2940    -1.5340   -11.8030 H      4342  TIP4192     0.2052
 31938 H2           8.0420    -2.3850   -11.8240 H      4342  TIP4192     0.2052
 31939 OH2          6.8930   -31.7570    39.4250 O.3    4343  TIP4193    -0.4105
 31940 H1           6.1310   -31.7660    40.0030 H      4343  TIP4193     0.2052
 31941 H2           7.2440   -32.6460    39.4770 H      4343  TIP4193     0.2052
 31942 OH2        -32.0800    14.5230   -25.5300 O.3    4344  TIP4194    -0.4105
 31943 H1         -31.3320    15.0290   -25.2110 H      4344  TIP4194     0.2052
 31944 H2         -31.9110    13.6300   -25.2300 H      4344  TIP4194     0.2052
 31945 OH2        -11.9310    29.2060   -40.9940 O.3    4345  TIP4195    -0.4105
 31946 H1         -11.6630    28.3440   -40.6760 H      4345  TIP4195     0.2052
 31947 H2         -11.5790    29.2540   -41.8830 H      4345  TIP4195     0.2052
 31948 OH2         -7.0960    -1.4960   -51.6070 O.3    4346  TIP4196    -0.4105
 31949 H1          -8.0350    -1.5870   -51.7710 H      4346  TIP4196     0.2052
 31950 H2          -6.6820    -1.7800   -52.4220 H      4346  TIP4196     0.2052
 31951 OH2         17.3950   -15.4340   -28.6580 O.3    4347  TIP4197    -0.4105
 31952 H1          17.4290   -14.5900   -29.1080 H      4347  TIP4197     0.2052
 31953 H2          17.2500   -16.0720   -29.3560 H      4347  TIP4197     0.2052
 31954 OH2         18.7700   -26.6740   -22.7210 O.3    4348  TIP4198    -0.4105
 31955 H1          18.3060   -27.1180   -22.0120 H      4348  TIP4198     0.2052
 31956 H2          18.4880   -25.7620   -22.6590 H      4348  TIP4198     0.2052
 31957 OH2        -15.8330   -13.0430   -47.4180 O.3    4349  TIP4199    -0.4105
 31958 H1         -16.2900   -13.3910   -46.6530 H      4349  TIP4199     0.2052
 31959 H2         -15.9780   -13.6960   -48.1030 H      4349  TIP4199     0.2052
 31960 OH2         17.0450    10.8840    40.7020 O.3    4350  TIP4200    -0.4105
 31961 H1          16.4540    11.3950    40.1500 H      4350  TIP4200     0.2052
 31962 H2          17.7790    10.6640    40.1290 H      4350  TIP4200     0.2052
 31963 OH2         28.2290    25.1830   -31.9250 O.3    4351  TIP4201    -0.4105
 31964 H1          28.9450    24.5740   -32.1080 H      4351  TIP4201     0.2052
 31965 H2          27.6940    24.7330   -31.2710 H      4351  TIP4201     0.2052
 31966 OH2         29.7660     3.6130   -36.6770 O.3    4352  TIP4202    -0.4105
 31967 H1          28.9340     4.0850   -36.6700 H      4352  TIP4202     0.2052
 31968 H2          29.9230     3.3880   -35.7600 H      4352  TIP4202     0.2052
 31969 OH2         -7.2760     6.7970    43.2130 O.3    4353  TIP4203    -0.4105
 31970 H1          -6.3800     6.6000    42.9410 H      4353  TIP4203     0.2052
 31971 H2          -7.8250     6.4110    42.5300 H      4353  TIP4203     0.2052
 31972 OH2        -32.1670   -26.9860    22.5830 O.3    4354  TIP4204    -0.4105
 31973 H1         -32.0070   -26.7420    21.6710 H      4354  TIP4204     0.2052
 31974 H2         -33.0290   -27.4030    22.5720 H      4354  TIP4204     0.2052
 31975 OH2        -24.5660    11.2100   -43.9540 O.3    4355  TIP4205    -0.4105
 31976 H1         -24.8450    10.6620   -43.2210 H      4355  TIP4205     0.2052
 31977 H2         -24.0820    11.9290   -43.5460 H      4355  TIP4205     0.2052
 31978 OH2         17.6590   -15.9730   -35.0840 O.3    4356  TIP4206    -0.4105
 31979 H1          17.4870   -15.0390   -35.2020 H      4356  TIP4206     0.2052
 31980 H2          17.3690   -16.3760   -35.9030 H      4356  TIP4206     0.2052
 31981 OH2         -5.4790    -9.2300    54.8910 O.3    4357  TIP4207    -0.4105
 31982 H1          -6.3630    -8.8910    55.0310 H      4357  TIP4207     0.2052
 31983 H2          -5.1240    -9.3480    55.7720 H      4357  TIP4207     0.2052
 31984 OH2         17.7300    28.6660   -33.5450 O.3    4358  TIP4208    -0.4105
 31985 H1          17.1710    28.0000   -33.9440 H      4358  TIP4208     0.2052
 31986 H2          18.0170    28.2760   -32.7190 H      4358  TIP4208     0.2052
 31987 OH2          8.1470    21.6450    38.1970 O.3    4359  TIP4209    -0.4105
 31988 H1           8.2920    21.1630    37.3830 H      4359  TIP4209     0.2052
 31989 H2           8.9900    22.0580    38.3840 H      4359  TIP4209     0.2052
 31990 OH2         -0.1260    -1.7840   -31.1020 O.3    4360  TIP4210    -0.4105
 31991 H1          -0.6510    -2.1570   -30.3950 H      4360  TIP4210     0.2052
 31992 H2          -0.6730    -1.0870   -31.4660 H      4360  TIP4210     0.2052
 31993 OH2         -4.3650    22.7040    52.5090 O.3    4361  TIP4211    -0.4105
 31994 H1          -4.5690    21.7740    52.6120 H      4361  TIP4211     0.2052
 31995 H2          -5.0630    23.1570    52.9810 H      4361  TIP4211     0.2052
 31996 OH2         29.9710    30.5510   -50.6020 O.3    4362  TIP4212    -0.4105
 31997 H1          29.2780    30.0680   -50.1510 H      4362  TIP4212     0.2052
 31998 H2          30.7550    30.0150   -50.4820 H      4362  TIP4212     0.2052
 31999 OH2          4.6270    -7.1240   -26.8610 O.3    4363  TIP4213    -0.4105
 32000 H1           4.5950    -8.0200   -27.1970 H      4363  TIP4213     0.2052
 32001 H2           4.2100    -7.1760   -26.0010 H      4363  TIP4213     0.2052
 32002 OH2          8.3430    18.1740    54.4660 O.3    4364  TIP4214    -0.4105
 32003 H1           8.4180    18.2610    55.4160 H      4364  TIP4214     0.2052
 32004 H2           7.6460    17.5310    54.3380 H      4364  TIP4214     0.2052
 32005 OH2          8.2980    -8.5110    33.3140 O.3    4365  TIP4215    -0.4105
 32006 H1           8.3560    -8.6370    34.2610 H      4365  TIP4215     0.2052
 32007 H2           9.0560    -7.9680    33.0970 H      4365  TIP4215     0.2052
 32008 OH2         18.2180    22.6180    45.9640 O.3    4366  TIP4216    -0.4105
 32009 H1          18.6040    21.8020    45.6470 H      4366  TIP4216     0.2052
 32010 H2          17.2740    22.4630    45.9370 H      4366  TIP4216     0.2052
 32011 OH2         29.2800     0.2280    38.1390 O.3    4367  TIP4217    -0.4105
 32012 H1          28.4560     0.1870    38.6240 H      4367  TIP4217     0.2052
 32013 H2          29.9180    -0.1990    38.7110 H      4367  TIP4217     0.2052
 32014 OH2         17.0140   -21.4190    28.8930 O.3    4368  TIP4218    -0.4105
 32015 H1          17.0760   -21.0550    28.0100 H      4368  TIP4218     0.2052
 32016 H2          17.6100   -20.8830    29.4160 H      4368  TIP4218     0.2052
 32017 OH2         26.0710    28.9140   -33.7860 O.3    4369  TIP4219    -0.4105
 32018 H1          25.2320    28.9550   -33.3280 H      4369  TIP4219     0.2052
 32019 H2          26.6940    28.6250   -33.1200 H      4369  TIP4219     0.2052
 32020 OH2         26.2340    21.1960   -37.2270 O.3    4370  TIP4220    -0.4105
 32021 H1          25.4690    20.9020   -36.7310 H      4370  TIP4220     0.2052
 32022 H2          25.8690    21.5780   -38.0250 H      4370  TIP4220     0.2052
 32023 OH2         31.2560    -3.9120   -47.7290 O.3    4371  TIP4221    -0.4105
 32024 H1          31.5460    -3.2730   -48.3800 H      4371  TIP4221     0.2052
 32025 H2          31.5700    -4.7530   -48.0620 H      4371  TIP4221     0.2052
 32026 OH2        -24.4760    19.1700    17.1020 O.3    4372  TIP4222    -0.4105
 32027 H1         -23.5560    19.3540    17.2910 H      4372  TIP4222     0.2052
 32028 H2         -24.6930    18.4260    17.6640 H      4372  TIP4222     0.2052
 32029 OH2         25.6940    25.4160    50.6110 O.3    4373  TIP4223    -0.4105
 32030 H1          25.1400    24.6610    50.4150 H      4373  TIP4223     0.2052
 32031 H2          26.2630    25.5020    49.8460 H      4373  TIP4223     0.2052
 32032 OH2          3.9050   -26.9330    55.3550 O.3    4374  TIP4224    -0.4105
 32033 H1           4.2950   -27.2480    54.5400 H      4374  TIP4224     0.2052
 32034 H2           4.2410   -27.5260    56.0270 H      4374  TIP4224     0.2052
 32035 OH2        -19.7530     5.2850    50.9360 O.3    4375  TIP4225    -0.4105
 32036 H1         -20.2980     4.8280    51.5770 H      4375  TIP4225     0.2052
 32037 H2         -19.8410     4.7690    50.1350 H      4375  TIP4225     0.2052
 32038 OH2         30.1950    25.4410   -49.8440 O.3    4376  TIP4226    -0.4105
 32039 H1          30.5850    26.2240   -50.2320 H      4376  TIP4226     0.2052
 32040 H2          29.3560    25.3410   -50.2960 H      4376  TIP4226     0.2052
 32041 OH2        -26.0080    -4.5810   -41.6990 O.3    4377  TIP4227    -0.4105
 32042 H1         -26.0770    -3.8110   -41.1340 H      4377  TIP4227     0.2052
 32043 H2         -25.1980    -4.4460   -42.1920 H      4377  TIP4227     0.2052
 32044 OH2        -13.9800     4.1480   -43.6370 O.3    4378  TIP4228    -0.4105
 32045 H1         -13.4650     4.9210   -43.4070 H      4378  TIP4228     0.2052
 32046 H2         -14.8610     4.4850   -43.7980 H      4378  TIP4228     0.2052
 32047 OH2        -27.9700   -11.0180    42.6230 O.3    4379  TIP4229    -0.4105
 32048 H1         -28.1330   -10.1180    42.9040 H      4379  TIP4229     0.2052
 32049 H2         -28.7450   -11.5020    42.9070 H      4379  TIP4229     0.2052
 32050 OH2        -22.0180    22.5390    22.8880 O.3    4380  TIP4230    -0.4105
 32051 H1         -21.0990    22.2740    22.9240 H      4380  TIP4230     0.2052
 32052 H2         -22.1120    22.9640    22.0350 H      4380  TIP4230     0.2052
 32053 OH2         18.2970   -32.8620   -48.1780 O.3    4381  TIP4231    -0.4105
 32054 H1          17.9230   -32.0310   -47.8870 H      4381  TIP4231     0.2052
 32055 H2          17.5960   -33.2780   -48.6790 H      4381  TIP4231     0.2052
 32056 OH2        -17.3700    22.5900    42.7420 O.3    4382  TIP4232    -0.4105
 32057 H1         -17.2100    22.9830    43.6000 H      4382  TIP4232     0.2052
 32058 H2         -17.1750    23.2890    42.1170 H      4382  TIP4232     0.2052
 32059 OH2         17.1510    -7.0750    27.7400 O.3    4383  TIP4233    -0.4105
 32060 H1          17.6550    -7.5780    28.3810 H      4383  TIP4233     0.2052
 32061 H2          16.8370    -6.3130    28.2260 H      4383  TIP4233     0.2052
 32062 OH2        -17.9140    -6.1780   -46.7570 O.3    4384  TIP4234    -0.4105
 32063 H1         -17.7690    -6.2810   -47.6980 H      4384  TIP4234     0.2052
 32064 H2         -18.2750    -5.2960   -46.6650 H      4384  TIP4234     0.2052
 32065 OH2        -10.5690    25.9920    21.6280 O.3    4385  TIP4235    -0.4105
 32066 H1          -9.9630    25.3210    21.3150 H      4385  TIP4235     0.2052
 32067 H2         -10.9140    26.3940    20.8310 H      4385  TIP4235     0.2052
 32068 OH2        -13.7810    26.4660   -22.1240 O.3    4386  TIP4236    -0.4105
 32069 H1         -13.5670    26.6330   -21.2060 H      4386  TIP4236     0.2052
 32070 H2         -13.2850    25.6780   -22.3470 H      4386  TIP4236     0.2052
 32071 OH2         12.0350   -27.0720    21.4860 O.3    4387  TIP4237    -0.4105
 32072 H1          12.4680   -27.3470    20.6780 H      4387  TIP4237     0.2052
 32073 H2          11.8950   -26.1310    21.3750 H      4387  TIP4237     0.2052
 32074 OH2        -11.8370    -5.6330    31.8890 O.3    4388  TIP4238    -0.4105
 32075 H1         -10.9170    -5.8610    31.7560 H      4388  TIP4238     0.2052
 32076 H2         -11.9460    -5.6190    32.8400 H      4388  TIP4238     0.2052
 32077 OH2        -14.0560    -8.8280    54.0660 O.3    4389  TIP4239    -0.4105
 32078 H1         -14.8430    -8.7070    54.5960 H      4389  TIP4239     0.2052
 32079 H2         -13.6720    -9.6440    54.3880 H      4389  TIP4239     0.2052
 32080 OH2         20.8800     8.2700   -27.7650 O.3    4390  TIP4240    -0.4105
 32081 H1          21.0390     7.4870   -27.2370 H      4390  TIP4240     0.2052
 32082 H2          21.7290     8.7090   -27.8050 H      4390  TIP4240     0.2052
 32083 OH2          4.4060    33.0180   -22.8640 O.3    4391  TIP4241    -0.4105
 32084 H1           4.9630    33.6440   -22.4020 H      4391  TIP4241     0.2052
 32085 H2           3.5650    33.4680   -22.9560 H      4391  TIP4241     0.2052
 32086 OH2         16.5780   -15.9680    30.8470 O.3    4392  TIP4242    -0.4105
 32087 H1          17.1860   -16.6110    31.2130 H      4392  TIP4242     0.2052
 32088 H2          15.8740   -16.4930    30.4660 H      4392  TIP4242     0.2052
 32089 OH2         14.1650    12.3200    41.6840 O.3    4393  TIP4243    -0.4105
 32090 H1          13.5380    12.8720    42.1510 H      4393  TIP4243     0.2052
 32091 H2          14.4260    12.8440    40.9260 H      4393  TIP4243     0.2052
 32092 OH2        -31.3430    21.8130   -36.7190 O.3    4394  TIP4244    -0.4105
 32093 H1         -30.5250    21.6420   -36.2540 H      4394  TIP4244     0.2052
 32094 H2         -31.8190    22.4200   -36.1530 H      4394  TIP4244     0.2052
 32095 OH2         31.9940    30.0050    48.9980 O.3    4395  TIP4245    -0.4105
 32096 H1          31.0480    30.0830    49.1240 H      4395  TIP4245     0.2052
 32097 H2          32.1480    30.3490    48.1180 H      4395  TIP4245     0.2052
 32098 OH2         19.3460    -1.5600    35.7990 O.3    4396  TIP4246    -0.4105
 32099 H1          18.9550    -0.7320    35.5240 H      4396  TIP4246     0.2052
 32100 H2          20.1300    -1.6480    35.2570 H      4396  TIP4246     0.2052
 32101 OH2         -4.8160     0.9050    36.7950 O.3    4397  TIP4247    -0.4105
 32102 H1          -5.0830    -0.0120    36.8590 H      4397  TIP4247     0.2052
 32103 H2          -3.9320     0.9240    37.1620 H      4397  TIP4247     0.2052
 32104 OH2         21.1860   -31.3160    26.4180 O.3    4398  TIP4248    -0.4105
 32105 H1          21.4790   -32.2270    26.4070 H      4398  TIP4248     0.2052
 32106 H2          21.4680   -30.9630    25.5750 H      4398  TIP4248     0.2052
 32107 OH2         32.5510    13.9960    36.2500 O.3    4399  TIP4249    -0.4105
 32108 H1          31.6470    13.6830    36.2380 H      4399  TIP4249     0.2052
 32109 H2          32.4920    14.8890    36.5880 H      4399  TIP4249     0.2052
 32110 OH2         -7.5350   -31.4240    48.0410 O.3    4400  TIP4250    -0.4105
 32111 H1          -6.9090   -30.7450    48.2930 H      4400  TIP4250     0.2052
 32112 H2          -7.4750   -32.0770    48.7370 H      4400  TIP4250     0.2052
 32113 OH2         -2.2740    24.6070    35.0950 O.3    4401  TIP4251    -0.4105
 32114 H1          -1.5230    24.6900    35.6820 H      4401  TIP4251     0.2052
 32115 H2          -2.3620    25.4710    34.6920 H      4401  TIP4251     0.2052
 32116 OH2        -19.5100    -4.3440    37.3180 O.3    4402  TIP4252    -0.4105
 32117 H1         -19.6580    -4.5860    36.4030 H      4402  TIP4252     0.2052
 32118 H2         -18.7190    -3.8040    37.2970 H      4402  TIP4252     0.2052
 32119 OH2         25.9380   -25.3730   -40.8120 O.3    4403  TIP4253    -0.4105
 32120 H1          26.4780   -25.6710   -41.5440 H      4403  TIP4253     0.2052
 32121 H2          25.3300   -24.7450   -41.2020 H      4403  TIP4253     0.2052
 32122 OH2         12.5910    16.8610   -40.8350 O.3    4404  TIP4254    -0.4105
 32123 H1          12.1600    16.0110   -40.9230 H      4404  TIP4254     0.2052
 32124 H2          13.4570    16.6550   -40.4820 H      4404  TIP4254     0.2052
 32125 OH2         10.6540    31.3290   -31.4860 O.3    4405  TIP4255    -0.4105
 32126 H1           9.8040    31.7500   -31.6130 H      4405  TIP4255     0.2052
 32127 H2          10.6290    30.5600   -32.0550 H      4405  TIP4255     0.2052
 32128 OH2        -17.0730     2.0250    50.7150 O.3    4406  TIP4256    -0.4105
 32129 H1         -16.7070     2.8730    50.9650 H      4406  TIP4256     0.2052
 32130 H2         -17.9920     2.2090    50.5190 H      4406  TIP4256     0.2052
 32131 OH2        -31.5260   -27.8570    47.0780 O.3    4407  TIP4257    -0.4105
 32132 H1         -32.2230   -27.8150    46.4230 H      4407  TIP4257     0.2052
 32133 H2         -31.6170   -28.7250    47.4700 H      4407  TIP4257     0.2052
 32134 OH2         10.8830    31.8690    53.2500 O.3    4408  TIP4258    -0.4105
 32135 H1           9.9430    31.9780    53.1070 H      4408  TIP4258     0.2052
 32136 H2          11.0040    30.9240    53.3440 H      4408  TIP4258     0.2052
 32137 OH2         25.7630   -29.0120    50.0660 O.3    4409  TIP4259    -0.4105
 32138 H1          25.6100   -29.8560    50.4900 H      4409  TIP4259     0.2052
 32139 H2          25.9210   -29.2300    49.1480 H      4409  TIP4259     0.2052
 32140 OH2        -31.2320    15.6010   -53.0700 O.3    4410  TIP4260    -0.4105
 32141 H1         -30.5800    14.9420   -53.3100 H      4410  TIP4260     0.2052
 32142 H2         -31.1190    16.2970   -53.7180 H      4410  TIP4260     0.2052
 32143 OH2         17.7110   -24.1140    28.6370 O.3    4411  TIP4261    -0.4105
 32144 H1          17.5050   -23.2050    28.8550 H      4411  TIP4261     0.2052
 32145 H2          18.5180   -24.0610    28.1250 H      4411  TIP4261     0.2052
 32146 OH2        -13.9270    16.0570    53.9120 O.3    4412  TIP4262    -0.4105
 32147 H1         -14.1340    16.5140    53.0960 H      4412  TIP4262     0.2052
 32148 H2         -13.5770    15.2120    53.6320 H      4412  TIP4262     0.2052
 32149 OH2          7.6760    12.4990    46.3970 O.3    4413  TIP4263    -0.4105
 32150 H1           8.3240    12.0960    45.8200 H      4413  TIP4263     0.2052
 32151 H2           7.1680    13.0730    45.8230 H      4413  TIP4263     0.2052
 32152 OH2        -25.4300    10.1900   -51.6180 O.3    4414  TIP4264    -0.4105
 32153 H1         -26.0020    10.5090   -50.9200 H      4414  TIP4264     0.2052
 32154 H2         -24.5900    10.6180   -51.4530 H      4414  TIP4264     0.2052
 32155 OH2        -18.6560   -26.0830   -39.8310 O.3    4415  TIP4265    -0.4105
 32156 H1         -18.2260   -26.8660   -40.1730 H      4415  TIP4265     0.2052
 32157 H2         -17.9500   -25.5800   -39.4240 H      4415  TIP4265     0.2052
 32158 OH2        -24.1730     3.9700   -33.5800 O.3    4416  TIP4266    -0.4105
 32159 H1         -23.6720     3.9840   -34.3960 H      4416  TIP4266     0.2052
 32160 H2         -25.0880     3.9620   -33.8600 H      4416  TIP4266     0.2052
 32161 OH2        -30.9790     1.8850   -50.1030 O.3    4417  TIP4267    -0.4105
 32162 H1         -31.3140     2.7320   -50.3970 H      4417  TIP4267     0.2052
 32163 H2         -31.1890     1.2830   -50.8170 H      4417  TIP4267     0.2052
 32164 OH2        -17.5120    11.4470    45.6140 O.3    4418  TIP4268    -0.4105
 32165 H1         -16.9910    11.1700    46.3680 H      4418  TIP4268     0.2052
 32166 H2         -17.5450    10.6750    45.0490 H      4418  TIP4268     0.2052
 32167 OH2         28.9980   -24.0500    55.0810 O.3    4419  TIP4269    -0.4105
 32168 H1          28.9390   -23.1090    55.2450 H      4419  TIP4269     0.2052
 32169 H2          28.4720   -24.4480    55.7740 H      4419  TIP4269     0.2052
 32170 OH2        -17.5940   -31.4610    48.4170 O.3    4420  TIP4270    -0.4105
 32171 H1         -16.7760   -31.8200    48.7630 H      4420  TIP4270     0.2052
 32172 H2         -17.5200   -30.5170    48.5560 H      4420  TIP4270     0.2052
 32173 OH2         16.6530   -17.5560   -37.0820 O.3    4421  TIP4271    -0.4105
 32174 H1          16.7910   -18.4940   -36.9520 H      4421  TIP4271     0.2052
 32175 H2          16.5920   -17.4520   -38.0310 H      4421  TIP4271     0.2052
 32176 OH2         21.8220   -25.3060   -45.9190 O.3    4422  TIP4272    -0.4105
 32177 H1          22.1450   -25.5900   -46.7740 H      4422  TIP4272     0.2052
 32178 H2          21.9790   -26.0550   -45.3430 H      4422  TIP4272     0.2052
 32179 OH2         30.7690   -22.4550    39.5990 O.3    4423  TIP4273    -0.4105
 32180 H1          31.4170   -22.5000    38.8960 H      4423  TIP4273     0.2052
 32181 H2          30.6870   -21.5200    39.7900 H      4423  TIP4273     0.2052
 32182 OH2        -30.3890   -10.7730    39.9780 O.3    4424  TIP4274    -0.4105
 32183 H1         -30.2590   -11.5650    40.4990 H      4424  TIP4274     0.2052
 32184 H2         -30.1580   -10.0570    40.5690 H      4424  TIP4274     0.2052
 32185 OH2        -30.0580    10.5010   -48.2560 O.3    4425  TIP4275    -0.4105
 32186 H1         -30.8820    10.0420   -48.0950 H      4425  TIP4275     0.2052
 32187 H2         -30.3180    11.3130   -48.6910 H      4425  TIP4275     0.2052
 32188 OH2        -22.8940   -26.7150    45.7260 O.3    4426  TIP4276    -0.4105
 32189 H1         -23.8280   -26.8370    45.5560 H      4426  TIP4276     0.2052
 32190 H2         -22.7800   -26.9840    46.6380 H      4426  TIP4276     0.2052
 32191 OH2         20.6790   -21.9960    36.0610 O.3    4427  TIP4277    -0.4105
 32192 H1          20.5310   -22.4720    36.8780 H      4427  TIP4277     0.2052
 32193 H2          21.6060   -21.7590    36.0860 H      4427  TIP4277     0.2052
 32194 OH2        -24.6040   -15.8060   -52.3880 O.3    4428  TIP4278    -0.4105
 32195 H1         -24.2690   -15.0590   -52.8850 H      4428  TIP4278     0.2052
 32196 H2         -23.9060   -16.0150   -51.7680 H      4428  TIP4278     0.2052
 32197 OH2        -18.5400   -17.3680    47.9610 O.3    4429  TIP4279    -0.4105
 32198 H1         -18.5530   -17.5500    47.0220 H      4429  TIP4279     0.2052
 32199 H2         -18.8900   -18.1620    48.3650 H      4429  TIP4279     0.2052
 32200 OH2        -32.3560    22.2350    23.2490 O.3    4430  TIP4280    -0.4105
 32201 H1         -32.0950    21.5180    22.6700 H      4430  TIP4280     0.2052
 32202 H2         -31.5490    22.4870    23.6970 H      4430  TIP4280     0.2052
 32203 OH2         20.4880     6.1630   -40.8080 O.3    4431  TIP4281    -0.4105
 32204 H1          20.5210     6.8170   -40.1100 H      4431  TIP4281     0.2052
 32205 H2          21.2860     5.6480   -40.6910 H      4431  TIP4281     0.2052
 32206 OH2         12.8570    16.1540    41.3930 O.3    4432  TIP4282    -0.4105
 32207 H1          12.9000    15.8870    40.4740 H      4432  TIP4282     0.2052
 32208 H2          12.7570    15.3350    41.8770 H      4432  TIP4282     0.2052
 32209 OH2         24.5660   -25.3630    51.2570 O.3    4433  TIP4283    -0.4105
 32210 H1          24.5640   -24.5340    51.7370 H      4433  TIP4283     0.2052
 32211 H2          24.4290   -25.1110    50.3430 H      4433  TIP4283     0.2052
 32212 OH2        -18.9550   -11.1520    50.1220 O.3    4434  TIP4284    -0.4105
 32213 H1         -19.2710   -11.7220    49.4210 H      4434  TIP4284     0.2052
 32214 H2         -18.2320   -10.6650    49.7270 H      4434  TIP4284     0.2052
 32215 OH2        -31.8200    16.4770   -46.1630 O.3    4435  TIP4285    -0.4105
 32216 H1         -31.3420    16.0570   -46.8780 H      4435  TIP4285     0.2052
 32217 H2         -32.7180    16.5520   -46.4860 H      4435  TIP4285     0.2052
 32218 OH2          5.9860     8.3980   -40.0670 O.3    4436  TIP4286    -0.4105
 32219 H1           6.3220     8.5110   -40.9560 H      4436  TIP4286     0.2052
 32220 H2           5.7160     9.2770   -39.7990 H      4436  TIP4286     0.2052
 32221 OH2        -25.5910    20.1740   -41.3610 O.3    4437  TIP4287    -0.4105
 32222 H1         -26.1070    20.6660   -40.7220 H      4437  TIP4287     0.2052
 32223 H2         -26.1210    19.4010   -41.5550 H      4437  TIP4287     0.2052
 32224 OH2         -8.4740   -19.2350   -51.3040 O.3    4438  TIP4288    -0.4105
 32225 H1          -9.0770   -19.8980   -50.9660 H      4438  TIP4288     0.2052
 32226 H2          -9.0400   -18.5910   -51.7300 H      4438  TIP4288     0.2052
 32227 OH2        -31.2960   -14.6050    39.0690 O.3    4439  TIP4289    -0.4105
 32228 H1         -30.7120   -15.3560    38.9640 H      4439  TIP4289     0.2052
 32229 H2         -32.0720   -14.9620    39.5000 H      4439  TIP4289     0.2052
 32230 OH2         27.7000    22.5880   -44.6070 O.3    4440  TIP4290    -0.4105
 32231 H1          28.1370    22.1820   -45.3550 H      4440  TIP4290     0.2052
 32232 H2          26.7820    22.3340   -44.6980 H      4440  TIP4290     0.2052
 32233 OH2          4.9920    27.4360    42.2620 O.3    4441  TIP4291    -0.4105
 32234 H1           4.7260    26.5300    42.4220 H      4441  TIP4291     0.2052
 32235 H2           5.4630    27.4050    41.4300 H      4441  TIP4291     0.2052
 32236 OH2        -16.4520     9.7820   -41.0270 O.3    4442  TIP4292    -0.4105
 32237 H1         -16.5270     9.7830   -40.0730 H      4442  TIP4292     0.2052
 32238 H2         -16.2550     8.8730   -41.2510 H      4442  TIP4292     0.2052
 32239 OH2         13.4150   -28.5350    25.6030 O.3    4443  TIP4293    -0.4105
 32240 H1          12.9650   -28.8340    24.8130 H      4443  TIP4293     0.2052
 32241 H2          14.3330   -28.7660    25.4580 H      4443  TIP4293     0.2052
 32242 OH2         30.6860   -27.7940   -52.1260 O.3    4444  TIP4294    -0.4105
 32243 H1          31.2870   -28.0030   -51.4110 H      4444  TIP4294     0.2052
 32244 H2          30.7100   -26.8390   -52.1880 H      4444  TIP4294     0.2052
 32245 OH2         27.5180    29.5150   -27.9740 O.3    4445  TIP4295    -0.4105
 32246 H1          27.1210    29.2610   -28.8070 H      4445  TIP4295     0.2052
 32247 H2          27.9180    28.7110   -27.6430 H      4445  TIP4295     0.2052
 32248 OH2        -15.0450    11.0640   -36.5830 O.3    4446  TIP4296    -0.4105
 32249 H1         -15.1480    11.9360   -36.2020 H      4446  TIP4296     0.2052
 32250 H2         -14.1070    10.9880   -36.7580 H      4446  TIP4296     0.2052
 32251 OH2        -20.0410    -5.4620   -29.2480 O.3    4447  TIP4297    -0.4105
 32252 H1         -20.1620    -6.2630   -29.7570 H      4447  TIP4297     0.2052
 32253 H2         -19.1320    -5.5020   -28.9500 H      4447  TIP4297     0.2052
 32254 OH2         24.6600    -3.9960   -25.0560 O.3    4448  TIP4298    -0.4105
 32255 H1          24.5010    -4.3230   -25.9420 H      4448  TIP4298     0.2052
 32256 H2          23.8040    -3.6910   -24.7560 H      4448  TIP4298     0.2052
 32257 OH2         17.9120   -30.3160    33.1260 O.3    4449  TIP4299    -0.4105
 32258 H1          18.8480   -30.1400    33.2240 H      4449  TIP4299     0.2052
 32259 H2          17.5450   -30.1580    33.9960 H      4449  TIP4299     0.2052
 32260 OH2         -6.9340   -22.1100   -26.8790 O.3    4450  TIP4300    -0.4105
 32261 H1          -7.8740   -21.9770   -27.0030 H      4450  TIP4300     0.2052
 32262 H2          -6.7360   -21.6650   -26.0550 H      4450  TIP4300     0.2052
 32263 OH2         -6.0160     0.9210    32.2240 O.3    4451  TIP4301    -0.4105
 32264 H1          -6.1300     1.5230    32.9590 H      4451  TIP4301     0.2052
 32265 H2          -6.0180     1.4850    31.4500 H      4451  TIP4301     0.2052
 32266 OH2         21.6010    25.1840   -30.6010 O.3    4452  TIP4302    -0.4105
 32267 H1          21.1860    25.0270   -29.7520 H      4452  TIP4302     0.2052
 32268 H2          21.0380    24.7320   -31.2300 H      4452  TIP4302     0.2052
 32269 OH2         22.3500    17.5950   -33.1080 O.3    4453  TIP4303    -0.4105
 32270 H1          22.7100    18.0210   -33.8860 H      4453  TIP4303     0.2052
 32271 H2          21.8410    16.8600   -33.4510 H      4453  TIP4303     0.2052
 32272 OH2         16.8330   -21.8750    42.1070 O.3    4454  TIP4304    -0.4105
 32273 H1          15.9190   -22.0850    41.9110 H      4454  TIP4304     0.2052
 32274 H2          17.2140   -22.7040    42.3940 H      4454  TIP4304     0.2052
 32275 OH2          2.2150    -6.0470   -31.2070 O.3    4455  TIP4305    -0.4105
 32276 H1           2.9820    -6.6190   -31.2290 H      4455  TIP4305     0.2052
 32277 H2           1.4710    -6.6390   -31.3170 H      4455  TIP4305     0.2052
 32278 OH2         -2.5000   -27.0910   -48.8140 O.3    4456  TIP4306    -0.4105
 32279 H1          -2.7420   -27.8460   -48.2780 H      4456  TIP4306     0.2052
 32280 H2          -3.0550   -26.3800   -48.4920 H      4456  TIP4306     0.2052
 32281 OH2        -22.9710   -27.0470   -22.7360 O.3    4457  TIP4307    -0.4105
 32282 H1         -22.5610   -26.6080   -21.9900 H      4457  TIP4307     0.2052
 32283 H2         -22.4370   -27.8280   -22.8790 H      4457  TIP4307     0.2052
 32284 OH2         -7.9620    19.0150   -45.1650 O.3    4458  TIP4308    -0.4105
 32285 H1          -8.7120    18.4260   -45.0820 H      4458  TIP4308     0.2052
 32286 H2          -8.1460    19.7260   -44.5510 H      4458  TIP4308     0.2052
 32287 OH2          5.5400   -23.2480    39.4900 O.3    4459  TIP4309    -0.4105
 32288 H1           5.6430   -23.0660    40.4240 H      4459  TIP4309     0.2052
 32289 H2           6.2400   -23.8680    39.2870 H      4459  TIP4309     0.2052
 32290 OH2         -1.8100   -12.6940    31.8520 O.3    4460  TIP4310    -0.4105
 32291 H1          -2.6650   -12.2690    31.7770 H      4460  TIP4310     0.2052
 32292 H2          -1.8100   -13.3560    31.1610 H      4460  TIP4310     0.2052
 32293 OH2        -18.1400   -12.2160   -26.2220 O.3    4461  TIP4311    -0.4105
 32294 H1         -17.7400   -12.8670   -25.6450 H      4461  TIP4311     0.2052
 32295 H2         -18.1130   -12.6170   -27.0910 H      4461  TIP4311     0.2052
 32296 OH2        -23.4340    23.5850    24.9770 O.3    4462  TIP4312    -0.4105
 32297 H1         -22.7980    23.4110    24.2830 H      4462  TIP4312     0.2052
 32298 H2         -23.8670    22.7440    25.1220 H      4462  TIP4312     0.2052
 32299 OH2          6.9190    16.8180   -41.4450 O.3    4463  TIP4313    -0.4105
 32300 H1           6.9710    16.9680   -42.3890 H      4463  TIP4313     0.2052
 32301 H2           6.5090    17.6100   -41.0980 H      4463  TIP4313     0.2052
 32302 OH2          6.0370    26.1980    25.9160 O.3    4464  TIP4314    -0.4105
 32303 H1           5.7630    26.5400    25.0640 H      4464  TIP4314     0.2052
 32304 H2           6.9250    26.5350    26.0360 H      4464  TIP4314     0.2052
 32305 OH2        -32.3740   -30.9970   -34.5780 O.3    4465  TIP4315    -0.4105
 32306 H1         -31.9860   -31.1440   -33.7150 H      4465  TIP4315     0.2052
 32307 H2         -33.3180   -31.0500   -34.4280 H      4465  TIP4315     0.2052
 32308 OH2        -26.3250   -18.9240   -47.4400 O.3    4466  TIP4316    -0.4105
 32309 H1         -27.2470   -18.7430   -47.6210 H      4466  TIP4316     0.2052
 32310 H2         -26.0480   -18.2100   -46.8660 H      4466  TIP4316     0.2052
 32311 OH2         30.7330    -9.5930   -53.3500 O.3    4467  TIP4317    -0.4105
 32312 H1          30.7030    -9.5920   -54.3070 H      4467  TIP4317     0.2052
 32313 H2          31.4400   -10.2010   -53.1330 H      4467  TIP4317     0.2052
 32314 OH2         25.7630    -6.2570    50.6690 O.3    4468  TIP4318    -0.4105
 32315 H1          26.4640    -6.8570    50.9240 H      4468  TIP4318     0.2052
 32316 H2          25.8680    -5.5060    51.2520 H      4468  TIP4318     0.2052
 32317 OH2         13.1410     8.3190    50.6050 O.3    4469  TIP4319    -0.4105
 32318 H1          13.8180     8.0550    51.2280 H      4469  TIP4319     0.2052
 32319 H2          13.5650     8.2550    49.7490 H      4469  TIP4319     0.2052
 32320 OH2         -8.4030    -4.2750   -42.3850 O.3    4470  TIP4320    -0.4105
 32321 H1          -7.8250    -4.9960   -42.6370 H      4470  TIP4320     0.2052
 32322 H2          -8.9010    -4.0790   -43.1780 H      4470  TIP4320     0.2052
 32323 OH2        -17.1490    15.9030   -16.2240 O.3    4471  TIP4321    -0.4105
 32324 H1         -16.4440    16.5350   -16.0840 H      4471  TIP4321     0.2052
 32325 H2         -17.8790    16.4260   -16.5550 H      4471  TIP4321     0.2052
 32326 OH2         28.6160   -19.4600   -31.6990 O.3    4472  TIP4322    -0.4105
 32327 H1          28.3640   -20.3250   -31.3770 H      4472  TIP4322     0.2052
 32328 H2          28.0810   -19.3300   -32.4820 H      4472  TIP4322     0.2052
 32329 OH2         26.6900     5.7280   -31.5550 O.3    4473  TIP4323    -0.4105
 32330 H1          27.4380     5.2580   -31.1860 H      4473  TIP4323     0.2052
 32331 H2          26.7870     5.6290   -32.5020 H      4473  TIP4323     0.2052
 32332 OH2        -22.0300     2.2870    48.3540 O.3    4474  TIP4324    -0.4105
 32333 H1         -22.7150     1.9240    48.9150 H      4474  TIP4324     0.2052
 32334 H2         -22.2670     2.0040    47.4710 H      4474  TIP4324     0.2052
 32335 OH2          6.5630    19.1010    52.2210 O.3    4475  TIP4325    -0.4105
 32336 H1           5.7400    18.8350    52.6320 H      4475  TIP4325     0.2052
 32337 H2           6.8550    19.8550    52.7340 H      4475  TIP4325     0.2052
 32338 OH2         -3.9800    12.3220   -37.6510 O.3    4476  TIP4326    -0.4105
 32339 H1          -4.7790    12.8240   -37.4880 H      4476  TIP4326     0.2052
 32340 H2          -4.2870    11.4980   -38.0280 H      4476  TIP4326     0.2052
 32341 OH2         -9.2330     9.8420   -45.9680 O.3    4477  TIP4327    -0.4105
 32342 H1          -9.0600     9.9940   -45.0390 H      4477  TIP4327     0.2052
 32343 H2          -9.8180    10.5550   -46.2230 H      4477  TIP4327     0.2052
 32344 OH2        -30.0580     3.8420   -32.2700 O.3    4478  TIP4328    -0.4105
 32345 H1         -30.3340     3.9160   -33.1840 H      4478  TIP4328     0.2052
 32346 H2         -29.9400     4.7470   -31.9810 H      4478  TIP4328     0.2052
 32347 OH2         14.3650    -6.6910   -54.3930 O.3    4479  TIP4329    -0.4105
 32348 H1          13.8720    -6.3820   -55.1540 H      4479  TIP4329     0.2052
 32349 H2          13.8470    -7.4190   -54.0510 H      4479  TIP4329     0.2052
 32350 OH2          1.3440    -7.6270    52.5820 O.3    4480  TIP4330    -0.4105
 32351 H1           0.3980    -7.6770    52.7210 H      4480  TIP4330     0.2052
 32352 H2           1.4840    -6.7630    52.1960 H      4480  TIP4330     0.2052
 32353 OH2         31.4010   -25.9290    38.8090 O.3    4481  TIP4331    -0.4105
 32354 H1          32.2710   -26.2680    38.6020 H      4481  TIP4331     0.2052
 32355 H2          31.4110   -25.8060    39.7580 H      4481  TIP4331     0.2052
 32356 OH2        -22.3590    -9.9500    44.2600 O.3    4482  TIP4332    -0.4105
 32357 H1         -23.1770    -9.8120    43.7830 H      4482  TIP4332     0.2052
 32358 H2         -21.9450   -10.6910    43.8180 H      4482  TIP4332     0.2052
 32359 OH2        -19.0540   -16.2030    28.7420 O.3    4483  TIP4333    -0.4105
 32360 H1         -18.7770   -17.0300    29.1370 H      4483  TIP4333     0.2052
 32361 H2         -19.9990   -16.2970    28.6220 H      4483  TIP4333     0.2052
 32362 OH2        -28.3400   -28.7360   -50.8750 O.3    4484  TIP4334    -0.4105
 32363 H1         -28.3820   -28.6870   -49.9200 H      4484  TIP4334     0.2052
 32364 H2         -27.4630   -28.4220   -51.0940 H      4484  TIP4334     0.2052
 32365 OH2         26.0600     7.4880   -41.3370 O.3    4485  TIP4335    -0.4105
 32366 H1          26.3070     8.4130   -41.3480 H      4485  TIP4335     0.2052
 32367 H2          25.6390     7.3410   -42.1840 H      4485  TIP4335     0.2052
 32368 OH2         -7.0470    -5.0670    22.0400 O.3    4486  TIP4336    -0.4105
 32369 H1          -6.3510    -4.6300    21.5490 H      4486  TIP4336     0.2052
 32370 H2          -7.6920    -4.3800    22.2050 H      4486  TIP4336     0.2052
 32371 OH2         14.9160    23.9440    37.6530 O.3    4487  TIP4337    -0.4105
 32372 H1          14.7430    23.1720    38.1920 H      4487  TIP4337     0.2052
 32373 H2          15.8600    24.0830    37.7300 H      4487  TIP4337     0.2052
 32374 OH2          5.3140     2.1100    40.3580 O.3    4488  TIP4338    -0.4105
 32375 H1           4.8540     2.7790    39.8510 H      4488  TIP4338     0.2052
 32376 H2           4.6740     1.4060    40.4620 H      4488  TIP4338     0.2052
 32377 OH2         19.0930    14.4500   -25.9520 O.3    4489  TIP4339    -0.4105
 32378 H1          18.3480    15.0340   -25.8100 H      4489  TIP4339     0.2052
 32379 H2          19.0710    13.8480   -25.2080 H      4489  TIP4339     0.2052
 32380 OH2        -20.4220    28.8920   -19.6580 O.3    4490  TIP4340    -0.4105
 32381 H1         -19.8450    28.5990   -18.9530 H      4490  TIP4340     0.2052
 32382 H2         -20.3660    29.8470   -19.6330 H      4490  TIP4340     0.2052
 32383 OH2         28.4810   -25.3340    37.9580 O.3    4491  TIP4341    -0.4105
 32384 H1          29.4330   -25.2460    37.9050 H      4491  TIP4341     0.2052
 32385 H2          28.1470   -24.7220    37.3020 H      4491  TIP4341     0.2052
 32386 OH2        -19.5370    27.3620    24.8290 O.3    4492  TIP4342    -0.4105
 32387 H1         -19.8750    28.2560    24.7760 H      4492  TIP4342     0.2052
 32388 H2         -18.6310    27.4660    25.1200 H      4492  TIP4342     0.2052
 32389 OH2        -15.9460   -18.7600   -49.4950 O.3    4493  TIP4343    -0.4105
 32390 H1         -16.7560   -18.2570   -49.4150 H      4493  TIP4343     0.2052
 32391 H2         -16.2350   -19.6690   -49.5750 H      4493  TIP4343     0.2052
 32392 OH2         -3.5830   -16.2170    40.2860 O.3    4494  TIP4344    -0.4105
 32393 H1          -3.4920   -17.1640    40.1760 H      4494  TIP4344     0.2052
 32394 H2          -2.7480   -15.9370    40.6600 H      4494  TIP4344     0.2052
 32395 OH2        -25.3550   -14.6560   -41.2940 O.3    4495  TIP4345    -0.4105
 32396 H1         -24.8080   -14.1940   -40.6590 H      4495  TIP4345     0.2052
 32397 H2         -26.2310   -14.6470   -40.9070 H      4495  TIP4345     0.2052
 32398 OH2         33.0200   -26.4220    55.4650 O.3    4496  TIP4346    -0.4105
 32399 H1          32.9060   -27.1820    56.0360 H      4496  TIP4346     0.2052
 32400 H2          32.6360   -26.6890    54.6300 H      4496  TIP4346     0.2052
 32401 OH2         -9.3390    28.5640   -32.8310 O.3    4497  TIP4347    -0.4105
 32402 H1          -9.6410    28.2690   -33.6910 H      4497  TIP4347     0.2052
 32403 H2          -8.9670    29.4300   -32.9920 H      4497  TIP4347     0.2052
 32404 OH2        -28.2120   -30.4100   -54.5320 O.3    4498  TIP4348    -0.4105
 32405 H1         -27.4710   -30.6700   -53.9840 H      4498  TIP4348     0.2052
 32406 H2         -28.6810   -31.2270   -54.7030 H      4498  TIP4348     0.2052
 32407 OH2         12.1020    -1.1450   -33.4660 O.3    4499  TIP4349    -0.4105
 32408 H1          12.6010    -0.7990   -34.2060 H      4499  TIP4349     0.2052
 32409 H2          12.5970    -0.8740   -32.6940 H      4499  TIP4349     0.2052
 32410 OH2         -8.1740    14.6750   -41.4190 O.3    4500  TIP4350    -0.4105
 32411 H1          -8.8670    14.0220   -41.5200 H      4500  TIP4350     0.2052
 32412 H2          -7.4340    14.1870   -41.0590 H      4500  TIP4350     0.2052
 32413 OH2        -25.1140    15.6050   -41.1650 O.3    4501  TIP4351    -0.4105
 32414 H1         -24.3980    15.8540   -40.5800 H      4501  TIP4351     0.2052
 32415 H2         -25.8230    16.2100   -40.9480 H      4501  TIP4351     0.2052
 32416 OH2        -10.6150     0.4430    24.0560 O.3    4502  TIP4352    -0.4105
 32417 H1         -11.2990    -0.1670    24.3310 H      4502  TIP4352     0.2052
 32418 H2         -11.0880     1.2350    23.8000 H      4502  TIP4352     0.2052
 32419 OH2         19.4520   -16.0950    29.4400 O.3    4503  TIP4353    -0.4105
 32420 H1          18.7850   -15.9840    30.1180 H      4503  TIP4353     0.2052
 32421 H2          19.0730   -16.7290    28.8320 H      4503  TIP4353     0.2052
 32422 OH2        -18.2610     2.9840   -51.6050 O.3    4504  TIP4354    -0.4105
 32423 H1         -19.1760     2.9660   -51.8860 H      4504  TIP4354     0.2052
 32424 H2         -18.2160     2.3440   -50.8950 H      4504  TIP4354     0.2052
 32425 OH2         -9.4150   -19.7390    37.8900 O.3    4505  TIP4355    -0.4105
 32426 H1          -8.7090   -19.4730    37.3010 H      4505  TIP4355     0.2052
 32427 H2          -8.9990   -20.3390    38.5080 H      4505  TIP4355     0.2052
 32428 OH2         -6.4450    25.5910   -32.8460 O.3    4506  TIP4356    -0.4105
 32429 H1          -6.0800    26.1180   -32.1360 H      4506  TIP4356     0.2052
 32430 H2          -6.2580    26.0940   -33.6390 H      4506  TIP4356     0.2052
 32431 OH2        -17.8300   -30.9540    29.9780 O.3    4507  TIP4357    -0.4105
 32432 H1         -17.0940   -31.3060    29.4770 H      4507  TIP4357     0.2052
 32433 H2         -18.4710   -31.6650    29.9960 H      4507  TIP4357     0.2052
 32434 OH2         28.9980   -26.7750   -36.4740 O.3    4508  TIP4358    -0.4105
 32435 H1          29.8700   -27.1690   -36.4940 H      4508  TIP4358     0.2052
 32436 H2          28.7180   -26.7640   -37.3890 H      4508  TIP4358     0.2052
 32437 OH2         -8.0120    10.5130   -54.1580 O.3    4509  TIP4359    -0.4105
 32438 H1          -8.5690    10.3890   -53.3890 H      4509  TIP4359     0.2052
 32439 H2          -7.1680    10.7890   -53.8010 H      4509  TIP4359     0.2052
 32440 OH2         -7.9360    -3.9120    55.5470 O.3    4510  TIP4360    -0.4105
 32441 H1          -8.0490    -3.1220    55.0180 H      4510  TIP4360     0.2052
 32442 H2          -8.8250    -4.1620    55.7980 H      4510  TIP4360     0.2052
 32443 OH2        -27.6970   -11.5200   -31.4060 O.3    4511  TIP4361    -0.4105
 32444 H1         -26.9350   -10.9510   -31.5130 H      4511  TIP4361     0.2052
 32445 H2         -28.0520   -11.6130   -32.2900 H      4511  TIP4361     0.2052
 32446 OH2         17.5020    -7.4730    32.8380 O.3    4512  TIP4362    -0.4105
 32447 H1          17.5100    -7.3460    33.7870 H      4512  TIP4362     0.2052
 32448 H2          18.3310    -7.9120    32.6480 H      4512  TIP4362     0.2052
 32449 OH2         -3.4040    30.0710    41.9190 O.3    4513  TIP4363    -0.4105
 32450 H1          -4.3350    29.9480    41.7340 H      4513  TIP4363     0.2052
 32451 H2          -3.3850    30.5390    42.7540 H      4513  TIP4363     0.2052
 32452 OH2        -23.9660    -5.4180    35.8470 O.3    4514  TIP4364    -0.4105
 32453 H1         -24.6350    -5.9560    35.4230 H      4514  TIP4364     0.2052
 32454 H2         -23.3070    -6.0460    36.1440 H      4514  TIP4364     0.2052
 32455 OH2          8.0670   -13.3840   -30.7740 O.3    4515  TIP4365    -0.4105
 32456 H1           7.8570   -12.5850   -31.2570 H      4515  TIP4365     0.2052
 32457 H2           8.9100   -13.2000   -30.3610 H      4515  TIP4365     0.2052
 32458 OH2         28.1540     2.7010    43.5690 O.3    4516  TIP4366    -0.4105
 32459 H1          28.7120     2.9710    44.2980 H      4516  TIP4366     0.2052
 32460 H2          27.2640     2.8920    43.8640 H      4516  TIP4366     0.2052
 32461 OH2          6.7170    31.2660   -24.3130 O.3    4517  TIP4367    -0.4105
 32462 H1           5.9770    31.6910   -23.8790 H      4517  TIP4367     0.2052
 32463 H2           6.4350    31.1630   -25.2220 H      4517  TIP4367     0.2052
 32464 OH2         16.5560   -15.5910    33.6740 O.3    4518  TIP4368    -0.4105
 32465 H1          16.3660   -15.6780    32.7400 H      4518  TIP4368     0.2052
 32466 H2          16.9080   -16.4440    33.9280 H      4518  TIP4368     0.2052
 32467 OH2        -31.1700   -16.2170   -44.9620 O.3    4519  TIP4369    -0.4105
 32468 H1         -30.6060   -16.9780   -45.0990 H      4519  TIP4369     0.2052
 32469 H2         -31.5550   -16.0460   -45.8210 H      4519  TIP4369     0.2052
 32470 OH2         19.6370   -18.8970    41.1810 O.3    4520  TIP4370    -0.4105
 32471 H1          19.7060   -19.2820    42.0550 H      4520  TIP4370     0.2052
 32472 H2          19.2190   -18.0480    41.3250 H      4520  TIP4370     0.2052
 32473 OH2         10.9940    33.0270   -55.2950 O.3    4521  TIP4371    -0.4105
 32474 H1          10.9850    33.9820   -55.3590 H      4521  TIP4371     0.2052
 32475 H2          11.5350    32.8430   -54.5280 H      4521  TIP4371     0.2052
 32476 OH2         20.8130   -30.1550    37.1730 O.3    4522  TIP4372    -0.4105
 32477 H1          21.2010   -30.2640    36.3050 H      4522  TIP4372     0.2052
 32478 H2          20.0700   -29.5690    37.0320 H      4522  TIP4372     0.2052
 32479 OH2          1.0770     6.4720    27.9120 O.3    4523  TIP4373    -0.4105
 32480 H1           1.0190     6.9790    27.1020 H      4523  TIP4373     0.2052
 32481 H2           0.2210     6.0500    27.9920 H      4523  TIP4373     0.2052
 32482 OH2         18.0040   -31.5830    25.0550 O.3    4524  TIP4374    -0.4105
 32483 H1          18.1100   -31.1290    25.8910 H      4524  TIP4374     0.2052
 32484 H2          17.8260   -32.4920    25.2970 H      4524  TIP4374     0.2052
 32485 OH2         13.7910   -16.4360   -35.9490 O.3    4525  TIP4375    -0.4105
 32486 H1          13.3410   -17.0270   -36.5530 H      4525  TIP4375     0.2052
 32487 H2          14.7050   -16.4530   -36.2320 H      4525  TIP4375     0.2052
 32488 OH2        -12.6980    32.5230   -30.9890 O.3    4526  TIP4376    -0.4105
 32489 H1         -12.3870    31.6250   -31.1020 H      4526  TIP4376     0.2052
 32490 H2         -11.9050    33.0580   -31.0190 H      4526  TIP4376     0.2052
 32491 OH2         31.4300   -26.8330    53.1500 O.3    4527  TIP4377    -0.4105
 32492 H1          31.5060   -27.7540    52.9030 H      4527  TIP4377     0.2052
 32493 H2          30.6340   -26.5320    52.7110 H      4527  TIP4377     0.2052
 32494 OH2          9.9810    31.5030   -35.8540 O.3    4528  TIP4378    -0.4105
 32495 H1           9.5560    31.3140   -35.0170 H      4528  TIP4378     0.2052
 32496 H2          10.5300    30.7380   -36.0220 H      4528  TIP4378     0.2052
 32497 OH2          8.5920     2.2670   -30.1410 O.3    4529  TIP4379    -0.4105
 32498 H1           8.3080     1.7680   -29.3750 H      4529  TIP4379     0.2052
 32499 H2           9.5260     2.4150   -29.9980 H      4529  TIP4379     0.2052
 32500 OH2        -13.1890    32.2810    40.4110 O.3    4530  TIP4380    -0.4105
 32501 H1         -13.6290    31.4490    40.2370 H      4530  TIP4380     0.2052
 32502 H2         -13.0680    32.6740    39.5470 H      4530  TIP4380     0.2052
 32503 OH2        -10.7770    13.6380   -51.6370 O.3    4531  TIP4381    -0.4105
 32504 H1         -10.1420    14.3540   -51.6370 H      4531  TIP4381     0.2052
 32505 H2         -11.6300    14.0730   -51.6330 H      4531  TIP4381     0.2052
 32506 OH2         -8.6060   -26.0130   -51.1540 O.3    4532  TIP4382    -0.4105
 32507 H1          -7.6710   -25.8420   -51.0430 H      4532  TIP4382     0.2052
 32508 H2          -8.7330   -26.0510   -52.1020 H      4532  TIP4382     0.2052
 32509 OH2          1.6890    25.9050   -55.2280 O.3    4533  TIP4383    -0.4105
 32510 H1           2.3240    25.6970   -54.5430 H      4533  TIP4383     0.2052
 32511 H2           0.8380    25.8410   -54.7940 H      4533  TIP4383     0.2052
 32512 OH2        -16.0770    12.7620   -51.5120 O.3    4534  TIP4384    -0.4105
 32513 H1         -16.5660    12.2560   -52.1600 H      4534  TIP4384     0.2052
 32514 H2         -16.2020    13.6740   -51.7760 H      4534  TIP4384     0.2052
 32515 OH2         -8.5890     6.5730    32.5750 O.3    4535  TIP4385    -0.4105
 32516 H1          -9.2120     6.1340    31.9960 H      4535  TIP4385     0.2052
 32517 H2          -8.2630     5.8780    33.1480 H      4535  TIP4385     0.2052
 32518 OH2         17.3330   -27.6410   -38.5410 O.3    4536  TIP4386    -0.4105
 32519 H1          17.0780   -27.8250   -39.4450 H      4536  TIP4386     0.2052
 32520 H2          17.9080   -26.8780   -38.6030 H      4536  TIP4386     0.2052
 32521 OH2         13.7120    25.7400   -40.8920 O.3    4537  TIP4387    -0.4105
 32522 H1          12.7740    25.7390   -40.6990 H      4537  TIP4387     0.2052
 32523 H2          13.8370    26.4940   -41.4690 H      4537  TIP4387     0.2052
 32524 OH2         14.4250   -23.1120    16.6920 O.3    4538  TIP4388    -0.4105
 32525 H1          13.8160   -23.5870    17.2570 H      4538  TIP4388     0.2052
 32526 H2          14.5320   -23.6760    15.9260 H      4538  TIP4388     0.2052
 32527 OH2          2.5790    17.2190    21.4110 O.3    4539  TIP4389    -0.4105
 32528 H1           3.2620    16.9020    20.8200 H      4539  TIP4389     0.2052
 32529 H2           1.9360    16.5100    21.4370 H      4539  TIP4389     0.2052
 32530 OH2         -9.8020    -3.1410   -40.5880 O.3    4540  TIP4390    -0.4105
 32531 H1          -9.6220    -3.4770   -39.7100 H      4540  TIP4390     0.2052
 32532 H2          -9.1130    -3.5180   -41.1350 H      4540  TIP4390     0.2052
 32533 OH2         28.2730    18.3900   -36.5600 O.3    4541  TIP4391    -0.4105
 32534 H1          27.7210    19.1060   -36.8730 H      4541  TIP4391     0.2052
 32535 H2          27.6740    17.6490   -36.4640 H      4541  TIP4391     0.2052
 32536 OH2         17.2190   -32.0480   -27.7700 O.3    4542  TIP4392    -0.4105
 32537 H1          17.1260   -32.0510   -28.7220 H      4542  TIP4392     0.2052
 32538 H2          17.1590   -32.9700   -27.5200 H      4542  TIP4392     0.2052
 32539 OH2        -10.0320   -31.5290    22.6480 O.3    4543  TIP4393    -0.4105
 32540 H1         -10.5470   -31.4120    21.8500 H      4543  TIP4393     0.2052
 32541 H2          -9.1220   -31.4720    22.3560 H      4543  TIP4393     0.2052
 32542 OH2         16.0940    -9.4320    22.0540 O.3    4544  TIP4394    -0.4105
 32543 H1          15.7780   -10.0880    21.4340 H      4544  TIP4394     0.2052
 32544 H2          16.1640    -8.6280    21.5390 H      4544  TIP4394     0.2052
 32545 OH2         24.8960    -3.0770   -55.5200 O.3    4545  TIP4395    -0.4105
 32546 H1          24.4070    -2.4730   -56.0790 H      4545  TIP4395     0.2052
 32547 H2          25.1670    -2.5450   -54.7720 H      4545  TIP4395     0.2052
 32548 OH2        -28.8970   -24.7630    48.2920 O.3    4546  TIP4396    -0.4105
 32549 H1         -29.8320   -24.9650    48.2580 H      4546  TIP4396     0.2052
 32550 H2         -28.7060   -24.6660    49.2250 H      4546  TIP4396     0.2052
 32551 OH2         18.3880    -0.4540   -51.9470 O.3    4547  TIP4397    -0.4105
 32552 H1          18.7090    -1.2620   -51.5460 H      4547  TIP4397     0.2052
 32553 H2          19.1600     0.1080   -52.0080 H      4547  TIP4397     0.2052
 32554 OH2         15.3380    -9.4430   -55.4110 O.3    4548  TIP4398    -0.4105
 32555 H1          14.8340   -10.1820   -55.7530 H      4548  TIP4398     0.2052
 32556 H2          15.1810    -9.4620   -54.4670 H      4548  TIP4398     0.2052
 32557 OH2         -5.4410     4.3490    49.1430 O.3    4549  TIP4399    -0.4105
 32558 H1          -5.6320     5.1530    49.6260 H      4549  TIP4399     0.2052
 32559 H2          -5.0540     4.6490    48.3200 H      4549  TIP4399     0.2052
 32560 OH2         29.3630    21.2530    51.3560 O.3    4550  TIP4400    -0.4105
 32561 H1          28.9060    21.7740    50.6970 H      4550  TIP4400     0.2052
 32562 H2          28.6920    20.6680    51.7080 H      4550  TIP4400     0.2052
 32563 OH2        -18.3690     4.0420    37.2400 O.3    4551  TIP4401    -0.4105
 32564 H1         -18.0090     4.9290    37.2520 H      4551  TIP4401     0.2052
 32565 H2         -19.1390     4.1030    36.6740 H      4551  TIP4401     0.2052
 32566 OH2        -26.5230    16.3790    31.9150 O.3    4552  TIP4402    -0.4105
 32567 H1         -26.3860    17.0320    31.2280 H      4552  TIP4402     0.2052
 32568 H2         -27.4050    16.0420    31.7530 H      4552  TIP4402     0.2052
 32569 OH2         -9.8230   -23.4040    45.3300 O.3    4553  TIP4403    -0.4105
 32570 H1         -10.6100   -23.8710    45.0490 H      4553  TIP4403     0.2052
 32571 H2         -10.0410   -23.0690    46.2000 H      4553  TIP4403     0.2052
 32572 OH2         26.4340    -1.2810    53.4580 O.3    4554  TIP4404    -0.4105
 32573 H1          26.9310    -0.6920    54.0260 H      4554  TIP4404     0.2052
 32574 H2          25.6280    -1.4590    53.9430 H      4554  TIP4404     0.2052
 32575 OH2        -15.4950    16.4410   -28.9910 O.3    4555  TIP4405    -0.4105
 32576 H1         -15.1620    15.9400   -29.7350 H      4555  TIP4405     0.2052
 32577 H2         -14.8140    16.3610   -28.3230 H      4555  TIP4405     0.2052
 32578 OH2         -9.5780   -10.6120   -46.6260 O.3    4556  TIP4406    -0.4105
 32579 H1          -9.8750   -10.3910   -45.7430 H      4556  TIP4406     0.2052
 32580 H2          -8.8290   -11.1920   -46.4890 H      4556  TIP4406     0.2052
 32581 OH2        -26.1440   -14.4680   -45.0610 O.3    4557  TIP4407    -0.4105
 32582 H1         -25.2090   -14.2670   -45.1120 H      4557  TIP4407     0.2052
 32583 H2         -26.5600   -13.8190   -45.6280 H      4557  TIP4407     0.2052
 32584 OH2          3.8840     9.6300   -54.4110 O.3    4558  TIP4408    -0.4105
 32585 H1           3.0110    10.0140   -54.4880 H      4558  TIP4408     0.2052
 32586 H2           4.4460    10.3620   -54.1550 H      4558  TIP4408     0.2052
 32587 OH2        -25.4210   -15.4070   -19.5390 O.3    4559  TIP4409    -0.4105
 32588 H1         -26.0170   -14.9950   -18.9130 H      4559  TIP4409     0.2052
 32589 H2         -24.5530   -15.0930   -19.2860 H      4559  TIP4409     0.2052
 32590 OH2         32.5180    -4.8110   -24.1770 O.3    4560  TIP4410    -0.4105
 32591 H1          33.0550    -4.5600   -24.9290 H      4560  TIP4410     0.2052
 32592 H2          33.1490    -4.9860   -23.4790 H      4560  TIP4410     0.2052
 32593 OH2         -3.5960     5.9080   -55.0120 O.3    4561  TIP4411    -0.4105
 32594 H1          -2.6860     6.1560   -54.8500 H      4561  TIP4411     0.2052
 32595 H2          -3.7060     5.0800   -54.5450 H      4561  TIP4411     0.2052
 32596 OH2        -22.8680    25.5260   -51.8140 O.3    4562  TIP4412    -0.4105
 32597 H1         -23.2860    26.0400   -51.1230 H      4562  TIP4412     0.2052
 32598 H2         -23.5010    24.8370   -52.0160 H      4562  TIP4412     0.2052
 32599 OH2         -3.0250    -4.6980   -42.3550 O.3    4563  TIP4413    -0.4105
 32600 H1          -2.8890    -5.3410   -41.6590 H      4563  TIP4413     0.2052
 32601 H2          -3.9720    -4.6900   -42.4930 H      4563  TIP4413     0.2052
 32602 OH2         27.9180   -16.6910    39.0740 O.3    4564  TIP4414    -0.4105
 32603 H1          27.2120   -17.3380    39.0740 H      4564  TIP4414     0.2052
 32604 H2          28.6140   -17.0960    38.5570 H      4564  TIP4414     0.2052
 32605 OH2          8.7370   -23.2680   -30.1120 O.3    4565  TIP4415    -0.4105
 32606 H1           8.5240   -22.5070   -29.5710 H      4565  TIP4415     0.2052
 32607 H2           8.9060   -23.9700   -29.4830 H      4565  TIP4415     0.2052
 32608 OH2         17.4630   -24.0330    24.0170 O.3    4566  TIP4416    -0.4105
 32609 H1          16.7020   -23.5440    24.3310 H      4566  TIP4416     0.2052
 32610 H2          18.1690   -23.3870    23.9890 H      4566  TIP4416     0.2052
 32611 OH2        -28.1890    30.0350   -27.0060 O.3    4567  TIP4417    -0.4105
 32612 H1         -27.6010    29.5700   -27.6010 H      4567  TIP4417     0.2052
 32613 H2         -28.3810    30.8590   -27.4540 H      4567  TIP4417     0.2052
 32614 OH2        -28.4800   -11.7150    50.1570 O.3    4568  TIP4418    -0.4105
 32615 H1         -28.5520   -11.0070    49.5180 H      4568  TIP4418     0.2052
 32616 H2         -27.7410   -12.2410    49.8510 H      4568  TIP4418     0.2052
 32617 OH2         32.5620    21.7640    28.2280 O.3    4569  TIP4419    -0.4105
 32618 H1          33.0220    21.1470    28.7960 H      4569  TIP4419     0.2052
 32619 H2          32.0340    22.2930    28.8270 H      4569  TIP4419     0.2052
 32620 OH2         -7.4470   -22.9680    27.2200 O.3    4570  TIP4420    -0.4105
 32621 H1          -6.9410   -23.1550    26.4290 H      4570  TIP4420     0.2052
 32622 H2          -6.8800   -23.2480    27.9390 H      4570  TIP4420     0.2052
 32623 OH2        -14.1220   -21.7490   -28.4140 O.3    4571  TIP4421    -0.4105
 32624 H1         -13.1940   -21.5460   -28.2960 H      4571  TIP4421     0.2052
 32625 H2         -14.2960   -21.5490   -29.3340 H      4571  TIP4421     0.2052
 32626 OH2         29.5830    -8.8980    26.5700 O.3    4572  TIP4422    -0.4105
 32627 H1          29.7070    -8.4320    25.7430 H      4572  TIP4422     0.2052
 32628 H2          28.6500    -9.1100    26.5890 H      4572  TIP4422     0.2052
 32629 OH2        -30.6510    -3.1700   -31.1990 O.3    4573  TIP4423    -0.4105
 32630 H1         -29.7430    -2.8750   -31.1320 H      4573  TIP4423     0.2052
 32631 H2         -30.5860    -4.0930   -31.4440 H      4573  TIP4423     0.2052
 32632 OH2         -0.0210    14.2470    43.0480 O.3    4574  TIP4424    -0.4105
 32633 H1          -0.6570    14.1020    42.3480 H      4574  TIP4424     0.2052
 32634 H2           0.6770    14.7570    42.6370 H      4574  TIP4424     0.2052
 32635 OH2         11.5540    30.1760    33.5750 O.3    4575  TIP4425    -0.4105
 32636 H1          10.8430    29.5470    33.4500 H      4575  TIP4425     0.2052
 32637 H2          11.6900    30.1990    34.5220 H      4575  TIP4425     0.2052
 32638 OH2        -10.5930    26.3790   -22.7730 O.3    4576  TIP4426    -0.4105
 32639 H1         -11.2600    26.8220   -23.2970 H      4576  TIP4426     0.2052
 32640 H2          -9.8100    26.9210   -22.8730 H      4576  TIP4426     0.2052
 32641 OH2         15.2740   -18.7550    44.7520 O.3    4577  TIP4427    -0.4105
 32642 H1          14.3650   -18.4940    44.6050 H      4577  TIP4427     0.2052
 32643 H2          15.6110   -18.9530    43.8780 H      4577  TIP4427     0.2052
 32644 OH2         -6.2900   -17.7810   -39.1420 O.3    4578  TIP4428    -0.4105
 32645 H1          -5.7120   -17.2580   -39.6980 H      4578  TIP4428     0.2052
 32646 H2          -6.3140   -17.3080   -38.3100 H      4578  TIP4428     0.2052
 32647 OH2         26.5760    29.8550    31.1010 O.3    4579  TIP4429    -0.4105
 32648 H1          26.8750    28.9460    31.1180 H      4579  TIP4429     0.2052
 32649 H2          26.1380    29.9480    30.2550 H      4579  TIP4429     0.2052
 32650 OH2         25.8260   -11.4030    19.4390 O.3    4580  TIP4430    -0.4105
 32651 H1          26.1100   -10.7680    20.0970 H      4580  TIP4430     0.2052
 32652 H2          25.2280   -10.9130    18.8750 H      4580  TIP4430     0.2052
 32653 OH2         -1.6270    25.5410    47.6950 O.3    4581  TIP4431    -0.4105
 32654 H1          -1.4220    25.5880    46.7610 H      4581  TIP4431     0.2052
 32655 H2          -1.2290    24.7200    47.9860 H      4581  TIP4431     0.2052
 32656 OH2        -25.8350    31.0680   -44.7240 O.3    4582  TIP4432    -0.4105
 32657 H1         -26.2410    31.9250   -44.5890 H      4582  TIP4432     0.2052
 32658 H2         -25.9390    30.8980   -45.6600 H      4582  TIP4432     0.2052
 32659 OH2        -28.6090    12.2420   -28.6300 O.3    4583  TIP4433    -0.4105
 32660 H1         -29.3770    12.0700   -29.1750 H      4583  TIP4433     0.2052
 32661 H2         -28.2810    13.0870   -28.9360 H      4583  TIP4433     0.2052
 32662 OH2        -15.5680    13.6980   -15.8510 O.3    4584  TIP4434    -0.4105
 32663 H1         -16.2010    14.2440   -16.3170 H      4584  TIP4434     0.2052
 32664 H2         -14.8410    14.2890   -15.6540 H      4584  TIP4434     0.2052
 32665 OH2        -16.6960    -9.5190    27.6850 O.3    4585  TIP4435    -0.4105
 32666 H1         -17.3950    -9.0340    27.2470 H      4585  TIP4435     0.2052
 32667 H2         -16.9930    -9.6020    28.5910 H      4585  TIP4435     0.2052
 32668 OH2        -23.4530    -1.9640    38.6240 O.3    4586  TIP4436    -0.4105
 32669 H1         -23.4300    -1.7790    37.6850 H      4586  TIP4436     0.2052
 32670 H2         -23.1790    -2.8780    38.6950 H      4586  TIP4436     0.2052
 32671 OH2         24.0560   -25.3660    32.3320 O.3    4587  TIP4437    -0.4105
 32672 H1          23.7660   -26.1150    31.8110 H      4587  TIP4437     0.2052
 32673 H2          23.2450   -24.9450    32.6180 H      4587  TIP4437     0.2052
 32674 OH2        -15.0710   -29.0870    44.0400 O.3    4588  TIP4438    -0.4105
 32675 H1         -14.2680   -28.9210    44.5340 H      4588  TIP4438     0.2052
 32676 H2         -14.8500   -28.8580    43.1380 H      4588  TIP4438     0.2052
 32677 OH2         -5.9100    -4.7460    33.7680 O.3    4589  TIP4439    -0.4105
 32678 H1          -5.4730    -4.3000    34.4930 H      4589  TIP4439     0.2052
 32679 H2          -6.5020    -5.3680    34.1900 H      4589  TIP4439     0.2052
 32680 OH2          8.5450   -24.2130    44.0910 O.3    4590  TIP4440    -0.4105
 32681 H1           8.6410   -24.6350    44.9450 H      4590  TIP4440     0.2052
 32682 H2           8.8010   -24.8860    43.4610 H      4590  TIP4440     0.2052
 32683 OH2         28.0790    30.8200    27.5730 O.3    4591  TIP4441    -0.4105
 32684 H1          28.0160    29.8820    27.3930 H      4591  TIP4441     0.2052
 32685 H2          27.2570    31.1840    27.2440 H      4591  TIP4441     0.2052
 32686 OH2         22.1280   -10.3100   -55.5710 O.3    4592  TIP4442    -0.4105
 32687 H1          22.3200   -11.2460   -55.5310 H      4592  TIP4442     0.2052
 32688 H2          22.6950    -9.9200   -54.9050 H      4592  TIP4442     0.2052
 32689 OH2          1.3290     6.1230   -40.0030 O.3    4593  TIP4443    -0.4105
 32690 H1           1.6480     6.8740   -40.5030 H      4593  TIP4443     0.2052
 32691 H2           1.5030     5.3680   -40.5660 H      4593  TIP4443     0.2052
 32692 OH2        -13.7870    -6.7950   -13.8410 O.3    4594  TIP4444    -0.4105
 32693 H1         -13.0620    -6.9910   -14.4350 H      4594  TIP4444     0.2052
 32694 H2         -14.4700    -6.4360   -14.4070 H      4594  TIP4444     0.2052
 32695 OH2        -20.8200   -11.9610   -21.9770 O.3    4595  TIP4445    -0.4105
 32696 H1         -19.9900   -12.2720   -21.6160 H      4595  TIP4445     0.2052
 32697 H2         -20.8540   -11.0350   -21.7360 H      4595  TIP4445     0.2052
 32698 OH2          7.6740    -8.5970   -34.4770 O.3    4596  TIP4446    -0.4105
 32699 H1           7.7290    -7.9700   -35.1980 H      4596  TIP4446     0.2052
 32700 H2           7.4920    -8.0600   -33.7060 H      4596  TIP4446     0.2052
 32701 OH2         17.1050     6.1170   -36.2740 O.3    4597  TIP4447    -0.4105
 32702 H1          17.4410     5.3950   -35.7430 H      4597  TIP4447     0.2052
 32703 H2          16.3080     6.3960   -35.8220 H      4597  TIP4447     0.2052
 32704 OH2         31.9700    16.3240   -47.6030 O.3    4598  TIP4448    -0.4105
 32705 H1          31.1830    16.6680   -48.0250 H      4598  TIP4448     0.2052
 32706 H2          31.6500    15.6270   -47.0300 H      4598  TIP4448     0.2052
 32707 OH2          0.2520    14.9100    30.7240 O.3    4599  TIP4449    -0.4105
 32708 H1           1.0410    15.1410    31.2150 H      4599  TIP4449     0.2052
 32709 H2           0.5030    15.0080    29.8060 H      4599  TIP4449     0.2052
 32710 OH2         18.6270    20.3470   -29.8020 O.3    4600  TIP4450    -0.4105
 32711 H1          19.1470    20.7860   -29.1290 H      4600  TIP4450     0.2052
 32712 H2          19.0750    19.5130   -29.9460 H      4600  TIP4450     0.2052
 32713 OH2        -18.9530    32.3940    29.4280 O.3    4601  TIP4451    -0.4105
 32714 H1         -19.6010    31.9920    28.8490 H      4601  TIP4451     0.2052
 32715 H2         -18.1090    32.1120    29.0750 H      4601  TIP4451     0.2052
 32716 OH2         18.4880     3.0940   -43.9540 O.3    4602  TIP4452    -0.4105
 32717 H1          18.3560     3.0660   -44.9020 H      4602  TIP4452     0.2052
 32718 H2          17.8100     3.6890   -43.6350 H      4602  TIP4452     0.2052
 32719 OH2         -3.6590   -30.7980    40.9280 O.3    4603  TIP4453    -0.4105
 32720 H1          -3.9750   -31.1250    40.0860 H      4603  TIP4453     0.2052
 32721 H2          -2.7070   -30.7700    40.8320 H      4603  TIP4453     0.2052
 32722 OH2        -10.5080   -18.4440   -46.4400 O.3    4604  TIP4454    -0.4105
 32723 H1         -10.4380   -17.5910   -46.0110 H      4604  TIP4454     0.2052
 32724 H2         -10.0830   -18.3210   -47.2890 H      4604  TIP4454     0.2052
 32725 OH2         -6.9490    21.8610    27.2580 O.3    4605  TIP4455    -0.4105
 32726 H1          -5.9940    21.8060    27.2230 H      4605  TIP4455     0.2052
 32727 H2          -7.2500    20.9900    27.0010 H      4605  TIP4455     0.2052
 32728 OH2         30.6720    27.5910   -38.9700 O.3    4606  TIP4456    -0.4105
 32729 H1          31.1540    27.9320   -39.7230 H      4606  TIP4456     0.2052
 32730 H2          31.1250    27.9570   -38.2100 H      4606  TIP4456     0.2052
 32731 OH2        -29.4310   -28.9960   -37.7930 O.3    4607  TIP4457    -0.4105
 32732 H1         -29.5730   -29.4520   -36.9630 H      4607  TIP4457     0.2052
 32733 H2         -30.2950   -28.6580   -38.0310 H      4607  TIP4457     0.2052
 32734 OH2         18.0270    -9.7050    46.9580 O.3    4608  TIP4458    -0.4105
 32735 H1          18.8400   -10.0300    47.3430 H      4608  TIP4458     0.2052
 32736 H2          17.7520    -8.9970    47.5400 H      4608  TIP4458     0.2052
 32737 OH2         21.4240     1.0020   -43.1640 O.3    4609  TIP4459    -0.4105
 32738 H1          21.3170     0.1120   -43.5010 H      4609  TIP4459     0.2052
 32739 H2          21.4530     1.5530   -43.9460 H      4609  TIP4459     0.2052
 32740 OH2          9.4470   -25.3010    19.6670 O.3    4610  TIP4460    -0.4105
 32741 H1           9.2670   -25.7670    18.8500 H      4610  TIP4460     0.2052
 32742 H2           8.6830   -25.4770    20.2170 H      4610  TIP4460     0.2052
 32743 OH2         -8.3830   -26.5410   -53.9580 O.3    4611  TIP4461    -0.4105
 32744 H1          -8.3190   -27.3750   -54.4230 H      4611  TIP4461     0.2052
 32745 H2          -7.9520   -25.9110   -54.5350 H      4611  TIP4461     0.2052
 32746 OH2         31.3100   -12.4970    36.5300 O.3    4612  TIP4462    -0.4105
 32747 H1          32.0710   -11.9170    36.5530 H      4612  TIP4462     0.2052
 32748 H2          31.6810   -13.3760    36.4470 H      4612  TIP4462     0.2052
 32749 OH2          0.5830   -17.1710    32.4040 O.3    4613  TIP4463    -0.4105
 32750 H1           0.9060   -18.0460    32.1900 H      4613  TIP4463     0.2052
 32751 H2           0.1760   -16.8610    31.5940 H      4613  TIP4463     0.2052
 32752 OH2        -21.1340    -1.9460    52.8040 O.3    4614  TIP4464    -0.4105
 32753 H1         -20.6440    -1.7610    52.0030 H      4614  TIP4464     0.2052
 32754 H2         -22.0400    -1.7270    52.5870 H      4614  TIP4464     0.2052
 32755 OH2        -14.6610   -12.8120   -26.9490 O.3    4615  TIP4465    -0.4105
 32756 H1         -14.5560   -12.6690   -26.0080 H      4615  TIP4465     0.2052
 32757 H2         -13.8140   -12.5720   -27.3240 H      4615  TIP4465     0.2052
 32758 OH2          9.0760   -17.0040    26.9230 O.3    4616  TIP4466    -0.4105
 32759 H1           9.8830   -17.0270    26.4080 H      4616  TIP4466     0.2052
 32760 H2           8.4150   -17.3930    26.3510 H      4616  TIP4466     0.2052
 32761 OH2          2.8900   -10.0120   -52.7860 O.3    4617  TIP4467    -0.4105
 32762 H1           2.3140   -10.5910   -53.2860 H      4617  TIP4467     0.2052
 32763 H2           3.5950    -9.7900   -53.3950 H      4617  TIP4467     0.2052
 32764 OH2         -5.9630     1.4150   -18.1060 O.3    4618  TIP4468    -0.4105
 32765 H1          -5.9150     0.8020   -17.3720 H      4618  TIP4468     0.2052
 32766 H2          -5.1140     1.3350   -18.5410 H      4618  TIP4468     0.2052
 32767 OH2         28.7480    11.9860   -35.5230 O.3    4619  TIP4469    -0.4105
 32768 H1          28.8110    11.3620   -34.8010 H      4619  TIP4469     0.2052
 32769 H2          28.7890    12.8450   -35.1020 H      4619  TIP4469     0.2052
 32770 OH2        -19.6150    -1.6460   -55.5010 O.3    4620  TIP4470    -0.4105
 32771 H1         -20.5230    -1.3490   -55.5660 H      4620  TIP4470     0.2052
 32772 H2         -19.5020    -1.8730   -54.5780 H      4620  TIP4470     0.2052
 32773 OH2         22.0590    27.3880   -25.7940 O.3    4621  TIP4471    -0.4105
 32774 H1          22.4800    26.6180   -26.1780 H      4621  TIP4471     0.2052
 32775 H2          22.3630    27.3990   -24.8860 H      4621  TIP4471     0.2052
 32776 OH2         -2.9350    18.4020   -31.3570 O.3    4622  TIP4472    -0.4105
 32777 H1          -3.2100    17.7400   -31.9910 H      4622  TIP4472     0.2052
 32778 H2          -2.4600    19.0500   -31.8770 H      4622  TIP4472     0.2052
 32779 OH2        -17.3940   -25.1410   -29.0510 O.3    4623  TIP4473    -0.4105
 32780 H1         -17.2630   -24.9070   -29.9700 H      4623  TIP4473     0.2052
 32781 H2         -16.7360   -24.6320   -28.5780 H      4623  TIP4473     0.2052
 32782 OH2        -30.7470    10.7900    44.4410 O.3    4624  TIP4474    -0.4105
 32783 H1         -29.8780    11.0250    44.7670 H      4624  TIP4474     0.2052
 32784 H2         -31.0220    10.0590    44.9950 H      4624  TIP4474     0.2052
 32785 OH2        -27.2560    -2.7800    26.3170 O.3    4625  TIP4475    -0.4105
 32786 H1         -27.9380    -2.7070    25.6500 H      4625  TIP4475     0.2052
 32787 H2         -26.4450    -2.5630    25.8560 H      4625  TIP4475     0.2052
 32788 OH2        -21.0950   -16.4860    33.4090 O.3    4626  TIP4476    -0.4105
 32789 H1         -21.8300   -15.8770    33.3390 H      4626  TIP4476     0.2052
 32790 H2         -21.1280   -16.9950    32.6000 H      4626  TIP4476     0.2052
 32791 OH2        -22.4160    -1.6070   -51.6070 O.3    4627  TIP4477    -0.4105
 32792 H1         -21.8950    -1.2460   -52.3240 H      4627  TIP4477     0.2052
 32793 H2         -22.6670    -2.4800   -51.9090 H      4627  TIP4477     0.2052
 32794 OH2         21.2940   -21.1400   -41.2920 O.3    4628  TIP4478    -0.4105
 32795 H1          21.4590   -20.9430   -40.3690 H      4628  TIP4478     0.2052
 32796 H2          21.0290   -22.0600   -41.2970 H      4628  TIP4478     0.2052
 32797 OH2         26.4610     7.8180    44.1350 O.3    4629  TIP4479    -0.4105
 32798 H1          26.6930     8.5900    43.6190 H      4629  TIP4479     0.2052
 32799 H2          26.8360     7.0840    43.6500 H      4629  TIP4479     0.2052
 32800 OH2        -15.9510    -3.8590    46.0890 O.3    4630  TIP4480    -0.4105
 32801 H1         -15.5530    -4.1710    46.9020 H      4630  TIP4480     0.2052
 32802 H2         -16.1720    -4.6570    45.6080 H      4630  TIP4480     0.2052
 32803 OH2         15.7650   -26.3930   -36.3190 O.3    4631  TIP4481    -0.4105
 32804 H1          15.6240   -27.1690   -35.7760 H      4631  TIP4481     0.2052
 32805 H2          16.0710   -26.7390   -37.1570 H      4631  TIP4481     0.2052
 32806 OH2        -13.0630    31.0380    48.6450 O.3    4632  TIP4482    -0.4105
 32807 H1         -13.8770    30.7920    49.0850 H      4632  TIP4482     0.2052
 32808 H2         -12.6510    31.6660    49.2380 H      4632  TIP4482     0.2052
 32809 OH2         12.8700     3.1340    27.8310 O.3    4633  TIP4483    -0.4105
 32810 H1          12.0020     2.7580    27.9800 H      4633  TIP4483     0.2052
 32811 H2          13.3940     2.8310    28.5730 H      4633  TIP4483     0.2052
 32812 OH2         20.4630    -5.9670    45.6980 O.3    4634  TIP4484    -0.4105
 32813 H1          20.2980    -6.3950    44.8580 H      4634  TIP4484     0.2052
 32814 H2          21.3570    -5.6320    45.6250 H      4634  TIP4484     0.2052
 32815 OH2         19.5910    13.2920    42.2850 O.3    4635  TIP4485    -0.4105
 32816 H1          19.6300    12.7520    41.4950 H      4635  TIP4485     0.2052
 32817 H2          18.6660    13.5210    42.3730 H      4635  TIP4485     0.2052
 32818 OH2         22.2820   -24.0850    24.8640 O.3    4636  TIP4486    -0.4105
 32819 H1          21.9600   -24.0200    23.9650 H      4636  TIP4486     0.2052
 32820 H2          23.1590   -24.4590    24.7790 H      4636  TIP4486     0.2052
 32821 OH2        -10.6180    19.9370   -25.3280 O.3    4637  TIP4487    -0.4105
 32822 H1         -10.2280    20.5030   -24.6620 H      4637  TIP4487     0.2052
 32823 H2         -10.8500    20.5320   -26.0410 H      4637  TIP4487     0.2052
 32824 OH2         19.9430     6.8600    38.2870 O.3    4638  TIP4488    -0.4105
 32825 H1          20.1360     6.6800    39.2070 H      4638  TIP4488     0.2052
 32826 H2          19.6370     7.7670    38.2790 H      4638  TIP4488     0.2052
 32827 OH2        -25.9790   -17.1420    37.2180 O.3    4639  TIP4489    -0.4105
 32828 H1         -25.4860   -17.6140    37.8890 H      4639  TIP4489     0.2052
 32829 H2         -26.7330   -16.7800    37.6850 H      4639  TIP4489     0.2052
 32830 OH2        -18.4000    27.4810   -39.3370 O.3    4640  TIP4490    -0.4105
 32831 H1         -19.2890    27.5790   -39.6780 H      4640  TIP4490     0.2052
 32832 H2         -17.8550    27.9910   -39.9360 H      4640  TIP4490     0.2052
 32833 OH2        -14.9930    26.5130   -54.2050 O.3    4641  TIP4491    -0.4105
 32834 H1         -14.4150    25.7530   -54.2640 H      4641  TIP4491     0.2052
 32835 H2         -14.6410    27.1320   -54.8450 H      4641  TIP4491     0.2052
 32836 OH2         18.5740   -20.7110    31.1260 O.3    4642  TIP4492    -0.4105
 32837 H1          19.1720   -20.2440    30.5430 H      4642  TIP4492     0.2052
 32838 H2          19.0480   -21.5060    31.3700 H      4642  TIP4492     0.2052
 32839 OH2         -3.9080    12.9580    49.5820 O.3    4643  TIP4493    -0.4105
 32840 H1          -4.2110    13.3620    48.7690 H      4643  TIP4493     0.2052
 32841 H2          -4.2840    12.0780    49.5670 H      4643  TIP4493     0.2052
 32842 OH2         11.6750    -0.4450    40.6670 O.3    4644  TIP4494    -0.4105
 32843 H1          12.1680    -0.1650    39.8960 H      4644  TIP4494     0.2052
 32844 H2          11.8110     0.2540    41.3070 H      4644  TIP4494     0.2052
 32845 OH2         28.3820    -2.5410    44.1810 O.3    4645  TIP4495    -0.4105
 32846 H1          28.8120    -3.2680    43.7320 H      4645  TIP4495     0.2052
 32847 H2          28.2070    -1.9020    43.4900 H      4645  TIP4495     0.2052
 32848 OH2        -27.3120     1.2010   -53.2000 O.3    4646  TIP4496    -0.4105
 32849 H1         -27.8690     0.8290   -53.8830 H      4646  TIP4496     0.2052
 32850 H2         -26.4710     1.3540   -53.6320 H      4646  TIP4496     0.2052
 32851 OH2        -17.8870    16.9180    53.1220 O.3    4647  TIP4497    -0.4105
 32852 H1         -18.0300    16.1480    52.5730 H      4647  TIP4497     0.2052
 32853 H2         -18.6030    17.5120    52.8960 H      4647  TIP4497     0.2052
 32854 OH2        -10.1920   -17.2850   -40.6610 O.3    4648  TIP4498    -0.4105
 32855 H1          -9.4700   -16.8330   -40.2250 H      4648  TIP4498     0.2052
 32856 H2         -10.5090   -16.6600   -41.3120 H      4648  TIP4498     0.2052
 32857 OH2         -7.7780    21.2280    48.2070 O.3    4649  TIP4499    -0.4105
 32858 H1          -7.7040    21.6630    49.0560 H      4649  TIP4499     0.2052
 32859 H2          -8.3430    20.4730    48.3720 H      4649  TIP4499     0.2052
 32860 OH2         26.1760    15.4410   -27.3020 O.3    4650  TIP4500    -0.4105
 32861 H1          26.0850    16.3740   -27.1080 H      4650  TIP4500     0.2052
 32862 H2          27.0570    15.2180   -27.0010 H      4650  TIP4500     0.2052
 32863 OH2        -23.8400     7.8690    17.9740 O.3    4651  TIP4501    -0.4105
 32864 H1         -24.2040     7.0630    17.6080 H      4651  TIP4501     0.2052
 32865 H2         -23.1620     7.5730    18.5810 H      4651  TIP4501     0.2052
 32866 OH2          2.8740    -3.5190    47.3500 O.3    4652  TIP4502    -0.4105
 32867 H1           3.4120    -4.0960    46.8080 H      4652  TIP4502     0.2052
 32868 H2           2.5350    -4.0880    48.0420 H      4652  TIP4502     0.2052
 32869 OH2        -32.0630   -15.1630   -27.4180 O.3    4653  TIP4503    -0.4105
 32870 H1         -31.1550   -14.9570   -27.6390 H      4653  TIP4503     0.2052
 32871 H2         -32.4500   -15.4600   -28.2420 H      4653  TIP4503     0.2052
 32872 OH2          7.4150    24.6190   -51.0100 O.3    4654  TIP4504    -0.4105
 32873 H1           6.7580    24.4490   -51.6850 H      4654  TIP4504     0.2052
 32874 H2           6.9090    24.7270   -50.2050 H      4654  TIP4504     0.2052
 32875 OH2         -7.5190    23.1790    32.9580 O.3    4655  TIP4505    -0.4105
 32876 H1          -6.9460    22.4180    33.0530 H      4655  TIP4505     0.2052
 32877 H2          -7.1230    23.8480    33.5170 H      4655  TIP4505     0.2052
 32878 OH2        -30.7160     8.9360    35.8280 O.3    4656  TIP4506    -0.4105
 32879 H1         -30.5660     8.6820    36.7390 H      4656  TIP4506     0.2052
 32880 H2         -31.1570     9.7840    35.8850 H      4656  TIP4506     0.2052
 32881 OH2        -26.0960   -24.2760    42.0140 O.3    4657  TIP4507    -0.4105
 32882 H1         -25.7940   -23.9780    41.1560 H      4657  TIP4507     0.2052
 32883 H2         -27.0490   -24.2030    41.9720 H      4657  TIP4507     0.2052
 32884 OH2          7.1420   -19.5250    39.1630 O.3    4658  TIP4508    -0.4105
 32885 H1           7.1380   -20.3580    38.6910 H      4658  TIP4508     0.2052
 32886 H2           7.0960   -19.7730    40.0860 H      4658  TIP4508     0.2052
 32887 OH2         -4.3490    12.2930    37.0000 O.3    4659  TIP4509    -0.4105
 32888 H1          -4.5540    12.9660    37.6490 H      4659  TIP4509     0.2052
 32889 H2          -3.4550    12.0220    37.2090 H      4659  TIP4509     0.2052
 32890 OH2         -6.3070   -13.9230    35.8600 O.3    4660  TIP4510    -0.4105
 32891 H1          -5.7330   -14.0300    36.6190 H      4660  TIP4510     0.2052
 32892 H2          -6.5530   -14.8160    35.6180 H      4660  TIP4510     0.2052
 32893 OH2         30.0190    20.3830   -51.1380 O.3    4661  TIP4511    -0.4105
 32894 H1          29.2950    20.9850   -51.3050 H      4661  TIP4511     0.2052
 32895 H2          30.7870    20.9490   -51.0520 H      4661  TIP4511     0.2052
 32896 OH2         10.4810     2.1890   -33.5550 O.3    4662  TIP4512    -0.4105
 32897 H1          11.0260     2.2550   -34.3390 H      4662  TIP4512     0.2052
 32898 H2          11.0510     1.7890   -32.8990 H      4662  TIP4512     0.2052
 32899 OH2        -10.8650    -0.0710   -53.1720 O.3    4663  TIP4513    -0.4105
 32900 H1         -11.3960     0.5510   -52.6750 H      4663  TIP4513     0.2052
 32901 H2         -11.4250    -0.3340   -53.9030 H      4663  TIP4513     0.2052
 32902 OH2        -12.7990     5.3300    44.7170 O.3    4664  TIP4514    -0.4105
 32903 H1         -12.5590     5.3370    45.6440 H      4664  TIP4514     0.2052
 32904 H2         -12.6730     6.2340    44.4300 H      4664  TIP4514     0.2052
 32905 OH2          3.8910    29.3390    52.0070 O.3    4665  TIP4515    -0.4105
 32906 H1           4.4630    29.8050    52.6170 H      4665  TIP4515     0.2052
 32907 H2           4.2040    28.4350    52.0270 H      4665  TIP4515     0.2052
 32908 OH2         28.1440    11.5550    41.3300 O.3    4666  TIP4516    -0.4105
 32909 H1          28.9160    12.0470    41.6100 H      4666  TIP4516     0.2052
 32910 H2          28.4520    10.6520    41.2460 H      4666  TIP4516     0.2052
 32911 OH2        -14.8510    32.2510   -28.8990 O.3    4667  TIP4517    -0.4105
 32912 H1         -14.6860    32.7150   -28.0780 H      4667  TIP4517     0.2052
 32913 H2         -14.0900    32.4480   -29.4440 H      4667  TIP4517     0.2052
 32914 OH2          7.4670   -20.4000   -29.0240 O.3    4668  TIP4518    -0.4105
 32915 H1           6.5630   -20.5560   -29.2970 H      4668  TIP4518     0.2052
 32916 H2           7.7760   -19.7040   -29.6040 H      4668  TIP4518     0.2052
 32917 OH2         -3.6630    14.2430    34.6820 O.3    4669  TIP4519    -0.4105
 32918 H1          -2.9660    14.3100    35.3340 H      4669  TIP4519     0.2052
 32919 H2          -4.4620    14.4670    35.1600 H      4669  TIP4519     0.2052
 32920 OH2         31.5900   -13.6150   -30.1030 O.3    4670  TIP4520    -0.4105
 32921 H1          32.2460   -14.3100   -30.0470 H      4670  TIP4520     0.2052
 32922 H2          31.5540   -13.2480   -29.2190 H      4670  TIP4520     0.2052
 32923 OH2        -27.6200    31.3410    30.0720 O.3    4671  TIP4521    -0.4105
 32924 H1         -27.4360    32.2640    29.8990 H      4671  TIP4521     0.2052
 32925 H2         -27.2560    31.1830    30.9440 H      4671  TIP4521     0.2052
 32926 OH2        -11.9670    -2.4510    53.0840 O.3    4672  TIP4522    -0.4105
 32927 H1         -11.9120    -1.7230    52.4650 H      4672  TIP4522     0.2052
 32928 H2         -11.0790    -2.8060    53.1180 H      4672  TIP4522     0.2052
 32929 OH2         -5.6950    11.2670    33.1810 O.3    4673  TIP4523    -0.4105
 32930 H1          -5.9010    10.7280    33.9440 H      4673  TIP4523     0.2052
 32931 H2          -4.7460    11.1930    33.0830 H      4673  TIP4523     0.2052
 32932 OH2         12.8020    -2.5070    24.1960 O.3    4674  TIP4524    -0.4105
 32933 H1          13.1530    -3.2450    24.6950 H      4674  TIP4524     0.2052
 32934 H2          11.9340    -2.3560    24.5700 H      4674  TIP4524     0.2052
 32935 OH2        -29.6230   -32.4630   -49.9670 O.3    4675  TIP4525    -0.4105
 32936 H1         -29.2300   -32.5540   -49.0980 H      4675  TIP4525     0.2052
 32937 H2         -28.9600   -32.8060   -50.5660 H      4675  TIP4525     0.2052
 32938 OH2        -21.4000   -13.0570    26.7250 O.3    4676  TIP4526    -0.4105
 32939 H1         -20.6500   -12.5400    26.4300 H      4676  TIP4526     0.2052
 32940 H2         -21.0290   -13.6880    27.3410 H      4676  TIP4526     0.2052
 32941 OH2         11.0980    27.1480   -45.9290 O.3    4677  TIP4527    -0.4105
 32942 H1          11.9880    26.8180   -45.8110 H      4677  TIP4527     0.2052
 32943 H2          10.5840    26.3750   -46.1620 H      4677  TIP4527     0.2052
 32944 OH2        -18.0320   -22.3790    42.0660 O.3    4678  TIP4528    -0.4105
 32945 H1         -18.0440   -23.0560    41.3890 H      4678  TIP4528     0.2052
 32946 H2         -17.8130   -22.8480    42.8710 H      4678  TIP4528     0.2052
 32947 OH2          9.5360    22.4120    33.7280 O.3    4679  TIP4529    -0.4105
 32948 H1          10.4840    22.3050    33.8020 H      4679  TIP4529     0.2052
 32949 H2           9.3970    23.3580    33.7660 H      4679  TIP4529     0.2052
 32950 OH2          5.4480   -26.9340   -42.9530 O.3    4680  TIP4530    -0.4105
 32951 H1           5.0200   -26.6350   -42.1500 H      4680  TIP4530     0.2052
 32952 H2           6.3820   -26.9220   -42.7450 H      4680  TIP4530     0.2052
 32953 OH2        -25.9790     9.4850    18.1210 O.3    4681  TIP4531    -0.4105
 32954 H1         -26.4900     8.6980    18.3090 H      4681  TIP4531     0.2052
 32955 H2         -25.1440     9.1550    17.7890 H      4681  TIP4531     0.2052
 32956 OH2          2.1910    32.1480   -32.7610 O.3    4682  TIP4532    -0.4105
 32957 H1           2.6730    32.9250   -32.4780 H      4682  TIP4532     0.2052
 32958 H2           1.6070    32.4640   -33.4500 H      4682  TIP4532     0.2052
 32959 OH2         -5.1190   -10.9430   -40.9640 O.3    4683  TIP4533    -0.4105
 32960 H1          -4.6690   -10.4400   -41.6430 H      4683  TIP4533     0.2052
 32961 H2          -4.7910   -10.5810   -40.1410 H      4683  TIP4533     0.2052
 32962 OH2         26.2170    24.3360    41.3970 O.3    4684  TIP4534    -0.4105
 32963 H1          25.8980    25.0010    40.7870 H      4684  TIP4534     0.2052
 32964 H2          25.5450    23.6550    41.3830 H      4684  TIP4534     0.2052
 32965 OH2         26.9830   -14.3370    22.2000 O.3    4685  TIP4535    -0.4105
 32966 H1          26.9290   -13.4220    22.4770 H      4685  TIP4535     0.2052
 32967 H2          27.8360   -14.6340    22.5170 H      4685  TIP4535     0.2052
 32968 OH2        -14.9720     0.9700    49.5800 O.3    4686  TIP4536    -0.4105
 32969 H1         -15.9270     1.0310    49.6130 H      4686  TIP4536     0.2052
 32970 H2         -14.7380     0.4470    50.3460 H      4686  TIP4536     0.2052
 32971 OH2        -12.9380     5.8200   -49.8430 O.3    4687  TIP4537    -0.4105
 32972 H1         -12.8140     5.9860   -50.7780 H      4687  TIP4537     0.2052
 32973 H2         -13.8240     5.4620   -49.7790 H      4687  TIP4537     0.2052
 32974 OH2         23.7290   -23.2540   -48.7760 O.3    4688  TIP4538    -0.4105
 32975 H1          23.0680   -22.6370   -49.0910 H      4688  TIP4538     0.2052
 32976 H2          23.7820   -23.9190   -49.4610 H      4688  TIP4538     0.2052
 32977 OH2          7.5560    -3.8730    33.3950 O.3    4689  TIP4539    -0.4105
 32978 H1           8.0680    -4.5920    33.7650 H      4689  TIP4539     0.2052
 32979 H2           7.5710    -3.1950    34.0700 H      4689  TIP4539     0.2052
 32980 OH2        -24.3950    -2.5590   -33.4560 O.3    4690  TIP4540    -0.4105
 32981 H1         -25.3050    -2.2620   -33.4760 H      4690  TIP4540     0.2052
 32982 H2         -23.8790    -1.7550   -33.5110 H      4690  TIP4540     0.2052
 32983 OH2        -29.2730   -10.7030    54.6950 O.3    4691  TIP4541    -0.4105
 32984 H1         -29.7540   -10.8960    53.8900 H      4691  TIP4541     0.2052
 32985 H2         -29.3710    -9.7580    54.8120 H      4691  TIP4541     0.2052
 32986 OH2        -24.2310   -12.5800    43.7160 O.3    4692  TIP4542    -0.4105
 32987 H1         -23.3180   -12.7940    43.5250 H      4692  TIP4542     0.2052
 32988 H2         -24.5930   -13.3820    44.0930 H      4692  TIP4542     0.2052
 32989 OH2        -24.9330    30.0710   -36.9590 O.3    4693  TIP4543    -0.4105
 32990 H1         -24.0840    30.0350   -36.5170 H      4693  TIP4543     0.2052
 32991 H2         -25.1000    29.1690   -37.2320 H      4693  TIP4543     0.2052
 32992 OH2        -29.0550    -2.2470   -54.4240 O.3    4694  TIP4544    -0.4105
 32993 H1         -28.2120    -2.2810   -53.9720 H      4694  TIP4544     0.2052
 32994 H2         -29.1080    -1.3550   -54.7680 H      4694  TIP4544     0.2052
 32995 OH2        -27.6460    22.9450   -50.6790 O.3    4695  TIP4545    -0.4105
 32996 H1         -28.4790    22.5490   -50.4250 H      4695  TIP4545     0.2052
 32997 H2         -27.8820    23.8170   -50.9980 H      4695  TIP4545     0.2052
 32998 OH2         27.2580     6.8040   -23.1320 O.3    4696  TIP4546    -0.4105
 32999 H1          27.0920     7.1060   -22.2390 H      4696  TIP4546     0.2052
 33000 H2          26.8010     7.4350   -23.6880 H      4696  TIP4546     0.2052
 33001 OH2         29.5200     2.9480    27.9310 O.3    4697  TIP4547    -0.4105
 33002 H1          29.2990     3.2840    27.0620 H      4697  TIP4547     0.2052
 33003 H2          29.7100     3.7300    28.4490 H      4697  TIP4547     0.2052
 33004 OH2         -9.9970    -8.8300   -23.8090 O.3    4698  TIP4548    -0.4105
 33005 H1         -10.7100    -9.2580   -24.2840 H      4698  TIP4548     0.2052
 33006 H2          -9.5050    -9.5500   -23.4140 H      4698  TIP4548     0.2052
 33007 OH2         24.5560   -18.9750    22.2220 O.3    4699  TIP4549    -0.4105
 33008 H1          24.8070   -18.8650    21.3050 H      4699  TIP4549     0.2052
 33009 H2          24.0910   -19.8120    22.2450 H      4699  TIP4549     0.2052
 33010 OH2        -26.6960   -31.0200   -48.9820 O.3    4700  TIP4550    -0.4105
 33011 H1         -26.4510   -30.3390   -48.3560 H      4700  TIP4550     0.2052
 33012 H2         -26.9920   -31.7510   -48.4390 H      4700  TIP4550     0.2052
 33013 OH2          2.1200    10.7240    31.6460 O.3    4701  TIP4551    -0.4105
 33014 H1           2.3700     9.8380    31.9070 H      4701  TIP4551     0.2052
 33015 H2           2.6080    10.8840    30.8390 H      4701  TIP4551     0.2052
 33016 OH2         -4.6640   -19.2210    24.7430 O.3    4702  TIP4552    -0.4105
 33017 H1          -4.3010   -19.5990    23.9420 H      4702  TIP4552     0.2052
 33018 H2          -4.9330   -18.3370    24.4910 H      4702  TIP4552     0.2052
 33019 OH2          3.1970     4.7360    28.2510 O.3    4703  TIP4553    -0.4105
 33020 H1           2.4740     5.3470    28.1090 H      4703  TIP4553     0.2052
 33021 H2           3.1070     4.4660    29.1650 H      4703  TIP4553     0.2052
 33022 OH2        -28.0920   -22.6700   -19.9600 O.3    4704  TIP4554    -0.4105
 33023 H1         -27.8980   -21.8750   -20.4560 H      4704  TIP4554     0.2052
 33024 H2         -29.0330   -22.6220   -19.7880 H      4704  TIP4554     0.2052
 33025 OH2         31.5350     6.7160    47.6810 O.3    4705  TIP4555    -0.4105
 33026 H1          31.3250     7.3320    48.3820 H      4705  TIP4555     0.2052
 33027 H2          30.7650     6.7260    47.1130 H      4705  TIP4555     0.2052
 33028 OH2         22.9190   -26.6040   -48.0800 O.3    4706  TIP4556    -0.4105
 33029 H1          23.1330   -27.2480   -48.7550 H      4706  TIP4556     0.2052
 33030 H2          23.6730   -26.6150   -47.4900 H      4706  TIP4556     0.2052
 33031 OH2         -8.3550    28.9840   -37.0420 O.3    4707  TIP4557    -0.4105
 33032 H1          -8.2480    29.7970   -36.5490 H      4707  TIP4557     0.2052
 33033 H2          -8.4560    29.2660   -37.9510 H      4707  TIP4557     0.2052
 33034 OH2         23.1110    -0.5840    51.0870 O.3    4708  TIP4558    -0.4105
 33035 H1          22.5680    -0.1590    50.4240 H      4708  TIP4558     0.2052
 33036 H2          23.9330    -0.0930    51.0760 H      4708  TIP4558     0.2052
 33037 OH2        -30.6970   -22.3920    40.4020 O.3    4709  TIP4559    -0.4105
 33038 H1         -31.5220   -22.7540    40.7240 H      4709  TIP4559     0.2052
 33039 H2         -30.4920   -21.6830    41.0110 H      4709  TIP4559     0.2052
 33040 OH2        -21.7090    23.6570    46.9080 O.3    4710  TIP4560    -0.4105
 33041 H1         -22.2090    22.9070    47.2310 H      4710  TIP4560     0.2052
 33042 H2         -21.8110    24.3240    47.5870 H      4710  TIP4560     0.2052
 33043 OH2         32.0830   -19.4340    53.0660 O.3    4711  TIP4561    -0.4105
 33044 H1          33.0120   -19.5020    53.2860 H      4711  TIP4561     0.2052
 33045 H2          31.8470   -18.5350    53.2930 H      4711  TIP4561     0.2052
 33046 OH2          9.0640    11.0530    52.1260 O.3    4712  TIP4562    -0.4105
 33047 H1           8.5540    10.2540    51.9930 H      4712  TIP4562     0.2052
 33048 H2           9.1830    11.4110    51.2460 H      4712  TIP4562     0.2052
 33049 OH2        -24.4870   -29.1630    35.7490 O.3    4713  TIP4563    -0.4105
 33050 H1         -24.9090   -28.9750    36.5870 H      4713  TIP4563     0.2052
 33051 H2         -23.6600   -28.6810    35.7830 H      4713  TIP4563     0.2052
 33052 OH2         27.3740    -1.0780   -25.9740 O.3    4714  TIP4564    -0.4105
 33053 H1          28.2220    -0.7270   -26.2440 H      4714  TIP4564     0.2052
 33054 H2          27.0650    -1.5710   -26.7340 H      4714  TIP4564     0.2052
 33055 OH2        -12.4990     4.7900   -35.5850 O.3    4715  TIP4565    -0.4105
 33056 H1         -11.9660     5.5850   -35.5790 H      4715  TIP4565     0.2052
 33057 H2         -11.8700     4.0790   -35.4650 H      4715  TIP4565     0.2052
 33058 OH2        -16.7710   -23.9660   -53.0020 O.3    4716  TIP4566    -0.4105
 33059 H1         -16.6190   -23.9940   -52.0570 H      4716  TIP4566     0.2052
 33060 H2         -16.8080   -23.0320   -53.2110 H      4716  TIP4566     0.2052
 33061 OH2          5.9920    24.7740    48.9660 O.3    4717  TIP4567    -0.4105
 33062 H1           6.8840    24.4370    48.8810 H      4717  TIP4567     0.2052
 33063 H2           6.0790    25.7180    48.8310 H      4717  TIP4567     0.2052
 33064 OH2         -8.3920   -26.1610    21.7360 O.3    4718  TIP4568    -0.4105
 33065 H1          -7.8180   -26.2940    20.9820 H      4718  TIP4568     0.2052
 33066 H2          -8.6810   -27.0410    21.9770 H      4718  TIP4568     0.2052
 33067 OH2        -11.6720    14.4970    18.8340 O.3    4719  TIP4569    -0.4105
 33068 H1         -10.8330    14.9390    18.9710 H      4719  TIP4569     0.2052
 33069 H2         -12.3250    15.1930    18.9150 H      4719  TIP4569     0.2052
 33070 OH2          3.5340     2.4340    34.6510 O.3    4720  TIP4570    -0.4105
 33071 H1           4.2460     2.9700    34.3020 H      4720  TIP4570     0.2052
 33072 H2           3.8100     2.2190    35.5420 H      4720  TIP4570     0.2052
 33073 OH2          3.4450    22.8730   -49.2310 O.3    4721  TIP4571    -0.4105
 33074 H1           3.6680    22.8060   -48.3020 H      4721  TIP4571     0.2052
 33075 H2           3.5110    21.9760   -49.5590 H      4721  TIP4571     0.2052
 33076 OH2         -2.1180   -14.9260   -32.7070 O.3    4722  TIP4572    -0.4105
 33077 H1          -2.9030   -15.4720   -32.7350 H      4722  TIP4572     0.2052
 33078 H2          -2.2500   -14.2810   -33.4020 H      4722  TIP4572     0.2052
 33079 OH2         -4.3390   -10.9770   -27.8660 O.3    4723  TIP4573    -0.4105
 33080 H1          -3.7920   -11.7630   -27.8680 H      4723  TIP4573     0.2052
 33081 H2          -4.0070   -10.4530   -28.5950 H      4723  TIP4573     0.2052
 33082 OH2         26.3130   -13.2180    14.5250 O.3    4724  TIP4574    -0.4105
 33083 H1          25.4460   -13.3920    14.1580 H      4724  TIP4574     0.2052
 33084 H2          26.1840   -12.4610    15.0960 H      4724  TIP4574     0.2052
 33085 OH2         -5.1410   -22.6030   -50.9270 O.3    4725  TIP4575    -0.4105
 33086 H1          -5.7210   -21.9270   -50.5770 H      4725  TIP4575     0.2052
 33087 H2          -4.2590   -22.2910   -50.7240 H      4725  TIP4575     0.2052
 33088 OH2        -19.7410    15.3430    30.8860 O.3    4726  TIP4576    -0.4105
 33089 H1         -19.9650    15.7350    31.7300 H      4726  TIP4576     0.2052
 33090 H2         -20.1640    14.4850    30.9000 H      4726  TIP4576     0.2052
 33091 OH2         18.5820    -9.0630   -28.3420 O.3    4727  TIP4577    -0.4105
 33092 H1          17.9770    -9.5740   -28.8790 H      4727  TIP4577     0.2052
 33093 H2          18.4280    -8.1550   -28.6040 H      4727  TIP4577     0.2052
 33094 OH2         22.0340   -30.7260   -32.4890 O.3    4728  TIP4578    -0.4105
 33095 H1          21.9590   -30.2570   -33.3200 H      4728  TIP4578     0.2052
 33096 H2          22.0850   -31.6490   -32.7380 H      4728  TIP4578     0.2052
 33097 OH2          2.6180    30.9920   -23.5370 O.3    4729  TIP4579    -0.4105
 33098 H1           3.3530    31.5190   -23.2240 H      4729  TIP4579     0.2052
 33099 H2           1.9390    31.6310   -23.7520 H      4729  TIP4579     0.2052
 33100 OH2         31.6350     5.4140    33.7720 O.3    4730  TIP4580    -0.4105
 33101 H1          30.7420     5.7020    33.5810 H      4730  TIP4580     0.2052
 33102 H2          32.1410     6.2240    33.8310 H      4730  TIP4580     0.2052
 33103 OH2         -9.0610    -5.8060   -33.3400 O.3    4731  TIP4581    -0.4105
 33104 H1          -8.4950    -5.1070   -33.6680 H      4731  TIP4581     0.2052
 33105 H2          -9.2440    -5.5610   -32.4330 H      4731  TIP4581     0.2052
 33106 OH2        -15.9910   -21.7430    51.4090 O.3    4732  TIP4582    -0.4105
 33107 H1         -16.1000   -22.0080    50.4950 H      4732  TIP4582     0.2052
 33108 H2         -16.7840   -22.0530    51.8450 H      4732  TIP4582     0.2052
 33109 OH2        -27.0520    29.8190    54.2440 O.3    4733  TIP4583    -0.4105
 33110 H1         -26.6230    29.6730    53.4010 H      4733  TIP4583     0.2052
 33111 H2         -27.9810    29.6660    54.0700 H      4733  TIP4583     0.2052
 33112 OH2        -26.3770   -21.3800   -48.7620 O.3    4734  TIP4584    -0.4105
 33113 H1         -26.4570   -20.4640   -48.4960 H      4734  TIP4584     0.2052
 33114 H2         -25.5230   -21.6540   -48.4280 H      4734  TIP4584     0.2052
 33115 OH2          1.1910    29.5820    50.0980 O.3    4735  TIP4585    -0.4105
 33116 H1           1.6330    29.7650    49.2690 H      4735  TIP4585     0.2052
 33117 H2           0.8630    28.6880    50.0030 H      4735  TIP4585     0.2052
 33118 OH2         -7.7400    30.1760    53.4380 O.3    4736  TIP4586    -0.4105
 33119 H1          -7.1290    30.7280    52.9500 H      4736  TIP4586     0.2052
 33120 H2          -7.3300    30.0650    54.2960 H      4736  TIP4586     0.2052
 33121 OH2        -32.1200   -22.1360    23.2040 O.3    4737  TIP4587    -0.4105
 33122 H1         -32.0090   -22.7830    22.5070 H      4737  TIP4587     0.2052
 33123 H2         -32.0000   -21.2920    22.7680 H      4737  TIP4587     0.2052
 33124 OH2        -22.1730    14.1420    33.6740 O.3    4738  TIP4588    -0.4105
 33125 H1         -21.7430    14.9880    33.8010 H      4738  TIP4588     0.2052
 33126 H2         -21.7000    13.7390    32.9460 H      4738  TIP4588     0.2052
 33127 OH2        -19.3730   -12.5790    35.8170 O.3    4739  TIP4589    -0.4105
 33128 H1         -19.7900   -12.5160    36.6760 H      4739  TIP4589     0.2052
 33129 H2         -18.4700   -12.8350    36.0070 H      4739  TIP4589     0.2052
 33130 OH2         32.6500    23.0450   -46.5130 O.3    4740  TIP4590    -0.4105
 33131 H1          31.9210    22.8100   -47.0870 H      4740  TIP4590     0.2052
 33132 H2          32.9010    23.9260   -46.7910 H      4740  TIP4590     0.2052
 33133 OH2         23.4280   -30.9670   -37.7820 O.3    4741  TIP4591    -0.4105
 33134 H1          22.8240   -30.4690   -37.2320 H      4741  TIP4591     0.2052
 33135 H2          23.5510   -31.7940   -37.3160 H      4741  TIP4591     0.2052
 33136 OH2         15.7240    27.6640   -41.1970 O.3    4742  TIP4592    -0.4105
 33137 H1          15.5100    26.9630   -40.5810 H      4742  TIP4592     0.2052
 33138 H2          16.1310    28.3420   -40.6570 H      4742  TIP4592     0.2052
 33139 OH2          1.6780    -2.9530   -51.5070 O.3    4743  TIP4593    -0.4105
 33140 H1           2.2570    -3.4070   -50.8950 H      4743  TIP4593     0.2052
 33141 H2           1.1990    -3.6540   -51.9490 H      4743  TIP4593     0.2052
 33142 OH2          0.7610     7.5310    33.0230 O.3    4744  TIP4594    -0.4105
 33143 H1          -0.0230     7.9570    33.3680 H      4744  TIP4594     0.2052
 33144 H2           0.5720     7.3940    32.0950 H      4744  TIP4594     0.2052
 33145 OH2        -20.2750    29.2130   -37.6850 O.3    4745  TIP4595    -0.4105
 33146 H1         -19.4160    28.8510   -37.9000 H      4745  TIP4595     0.2052
 33147 H2         -20.8320    28.9650   -38.4230 H      4745  TIP4595     0.2052
 33148 OH2        -26.7650     5.8010   -48.1620 O.3    4746  TIP4596    -0.4105
 33149 H1         -27.5120     5.5000   -48.6790 H      4746  TIP4596     0.2052
 33150 H2         -26.0090     5.6730   -48.7340 H      4746  TIP4596     0.2052
 33151 OH2         -9.8550   -22.9190   -18.1110 O.3    4747  TIP4597    -0.4105
 33152 H1         -10.2710   -23.0500   -18.9640 H      4747  TIP4597     0.2052
 33153 H2          -8.9270   -23.0930   -18.2670 H      4747  TIP4597     0.2052
 33154 OH2         32.7180     5.3090    37.2500 O.3    4748  TIP4598    -0.4105
 33155 H1          31.9570     5.4020    36.6770 H      4748  TIP4598     0.2052
 33156 H2          32.8310     6.1750    37.6410 H      4748  TIP4598     0.2052
 33157 OH2         24.7410     2.5010   -18.7410 O.3    4749  TIP4599    -0.4105
 33158 H1          25.6770     2.4220   -18.5590 H      4749  TIP4599     0.2052
 33159 H2          24.4000     3.0260   -18.0160 H      4749  TIP4599     0.2052
 33160 OH2        -23.9850   -18.7710    34.4880 O.3    4750  TIP4600    -0.4105
 33161 H1         -24.1610   -18.1190    35.1660 H      4750  TIP4600     0.2052
 33162 H2         -23.3140   -18.3690    33.9360 H      4750  TIP4600     0.2052
 33163 OH2          0.0200     0.9320    51.9830 O.3    4751  TIP4601    -0.4105
 33164 H1          -0.8990     0.7140    51.8250 H      4751  TIP4601     0.2052
 33165 H2           0.2310     1.5830    51.3140 H      4751  TIP4601     0.2052
 33166 OH2         -7.1590    25.2160   -36.7520 O.3    4752  TIP4602    -0.4105
 33167 H1          -6.3540    25.4280   -36.2800 H      4752  TIP4602     0.2052
 33168 H2          -7.1920    24.2590   -36.7530 H      4752  TIP4602     0.2052
 33169 OH2         -7.4530    19.8590   -20.7910 O.3    4753  TIP4603    -0.4105
 33170 H1          -6.8330    19.5360   -20.1370 H      4753  TIP4603     0.2052
 33171 H2          -7.5870    20.7780   -20.5610 H      4753  TIP4603     0.2052
 33172 OH2         21.4450     0.9850   -26.9110 O.3    4754  TIP4604    -0.4105
 33173 H1          22.2800     1.3800   -27.1600 H      4754  TIP4604     0.2052
 33174 H2          20.9750     1.6840   -26.4560 H      4754  TIP4604     0.2052
 33175 OH2         17.7590   -13.1010    40.6010 O.3    4755  TIP4605    -0.4105
 33176 H1          17.1710   -13.8140    40.8510 H      4755  TIP4605     0.2052
 33177 H2          18.3470   -13.4910    39.9530 H      4755  TIP4605     0.2052
 33178 OH2         -4.4550    -1.3460    27.9760 O.3    4756  TIP4606    -0.4105
 33179 H1          -4.0210    -0.9150    27.2400 H      4756  TIP4606     0.2052
 33180 H2          -4.5330    -2.2610    27.7060 H      4756  TIP4606     0.2052
 33181 OH2          4.6230     3.1760   -30.4210 O.3    4757  TIP4607    -0.4105
 33182 H1           5.0950     3.4530   -31.2060 H      4757  TIP4607     0.2052
 33183 H2           4.8930     3.7980   -29.7460 H      4757  TIP4607     0.2052
 33184 OH2        -23.3660   -14.9050    39.4170 O.3    4758  TIP4608    -0.4105
 33185 H1         -23.4050   -13.9600    39.2660 H      4758  TIP4608     0.2052
 33186 H2         -22.6940   -15.2160    38.8100 H      4758  TIP4608     0.2052
 33187 OH2        -22.4660     3.0110    28.7550 O.3    4759  TIP4609    -0.4105
 33188 H1         -21.5560     3.2870    28.6470 H      4759  TIP4609     0.2052
 33189 H2         -22.9250     3.8030    29.0360 H      4759  TIP4609     0.2052
 33190 OH2        -24.7250    -8.7970    48.2830 O.3    4760  TIP4610    -0.4105
 33191 H1         -23.7950    -8.9750    48.4280 H      4760  TIP4610     0.2052
 33192 H2         -24.7790    -7.8430    48.2230 H      4760  TIP4610     0.2052
 33193 OH2          0.4340    25.4220   -46.2490 O.3    4761  TIP4611    -0.4105
 33194 H1           0.3790    24.7140   -46.8900 H      4761  TIP4611     0.2052
 33195 H2           1.2030    25.2080   -45.7210 H      4761  TIP4611     0.2052
 33196 OH2          8.6840    32.1260    39.5120 O.3    4762  TIP4612    -0.4105
 33197 H1           8.7490    31.2090    39.7790 H      4762  TIP4612     0.2052
 33198 H2           9.4590    32.5420    39.8890 H      4762  TIP4612     0.2052
 33199 OH2         28.7020   -25.4540   -41.7260 O.3    4763  TIP4613    -0.4105
 33200 H1          28.2430   -25.8060   -42.4890 H      4763  TIP4613     0.2052
 33201 H2          28.6880   -26.1680   -41.0880 H      4763  TIP4613     0.2052
 33202 OH2         16.0830    16.7680   -32.7510 O.3    4764  TIP4614    -0.4105
 33203 H1          15.9090    16.5280   -33.6610 H      4764  TIP4614     0.2052
 33204 H2          16.9120    16.3370   -32.5440 H      4764  TIP4614     0.2052
 33205 OH2        -25.1060    16.2500   -48.7560 O.3    4765  TIP4615    -0.4105
 33206 H1         -25.8400    16.4090   -48.1630 H      4765  TIP4615     0.2052
 33207 H2         -25.5150    16.0850   -49.6060 H      4765  TIP4615     0.2052
 33208 OH2         -8.7970     2.9060   -17.9910 O.3    4766  TIP4616    -0.4105
 33209 H1          -8.0280     2.3770   -17.7810 H      4766  TIP4616     0.2052
 33210 H2          -8.4470     3.7810   -18.1580 H      4766  TIP4616     0.2052
 33211 OH2          7.9100   -20.0910   -44.9310 O.3    4767  TIP4617    -0.4105
 33212 H1           7.2320   -20.7220   -45.1760 H      4767  TIP4617     0.2052
 33213 H2           8.4130   -20.5340   -44.2470 H      4767  TIP4617     0.2052
 33214 OH2         -6.5400    -0.9790   -19.8450 O.3    4768  TIP4618    -0.4105
 33215 H1          -7.2990    -1.0050   -20.4280 H      4768  TIP4618     0.2052
 33216 H2          -6.7430    -0.2850   -19.2170 H      4768  TIP4618     0.2052
 33217 OH2         11.8640   -16.8660    26.6390 O.3    4769  TIP4619    -0.4105
 33218 H1          12.6280   -16.5200    27.1020 H      4769  TIP4619     0.2052
 33219 H2          12.2160   -17.2050    25.8160 H      4769  TIP4619     0.2052
 33220 OH2        -15.1780    15.1490   -25.1220 O.3    4770  TIP4620    -0.4105
 33221 H1         -16.0930    15.1730   -25.4030 H      4770  TIP4620     0.2052
 33222 H2         -15.1520    15.7030   -24.3420 H      4770  TIP4620     0.2052
 33223 OH2        -26.8620    13.9040    20.8530 O.3    4771  TIP4621    -0.4105
 33224 H1         -26.7630    13.2760    20.1380 H      4771  TIP4621     0.2052
 33225 H2         -26.0150    13.8970    21.2980 H      4771  TIP4621     0.2052
 33226 OH2        -33.0530     7.0700    28.2320 O.3    4772  TIP4622    -0.4105
 33227 H1         -32.7810     7.4240    29.0790 H      4772  TIP4622     0.2052
 33228 H2         -33.7000     7.6950    27.9070 H      4772  TIP4622     0.2052
 33229 OH2          6.6600    -4.7960   -54.1430 O.3    4773  TIP4623    -0.4105
 33230 H1           6.8100    -3.9380   -53.7440 H      4773  TIP4623     0.2052
 33231 H2           7.5380    -5.1380   -54.3130 H      4773  TIP4623     0.2052
 33232 OH2         19.3940    21.9290    38.0640 O.3    4774  TIP4624    -0.4105
 33233 H1          20.3150    21.9080    37.8020 H      4774  TIP4624     0.2052
 33234 H2          19.0100    21.1570    37.6480 H      4774  TIP4624     0.2052
 33235 OH2        -23.7710    24.4880    35.6520 O.3    4775  TIP4625    -0.4105
 33236 H1         -23.0470    25.0450    35.3660 H      4775  TIP4625     0.2052
 33237 H2         -23.4720    24.1110    36.4800 H      4775  TIP4625     0.2052
 33238 OH2         -7.7530   -14.1280    51.3240 O.3    4776  TIP4626    -0.4105
 33239 H1          -7.2950   -14.5190    50.5810 H      4776  TIP4626     0.2052
 33240 H2          -7.2830   -14.4500    52.0930 H      4776  TIP4626     0.2052
 33241 OH2         -4.8230    27.3450    33.0910 O.3    4777  TIP4627    -0.4105
 33242 H1          -5.6290    27.8540    33.1850 H      4777  TIP4627     0.2052
 33243 H2          -4.8190    27.0680    32.1750 H      4777  TIP4627     0.2052
 33244 OH2        -22.0030    24.1550   -54.1600 O.3    4778  TIP4628    -0.4105
 33245 H1         -21.0600    24.0670   -54.0190 H      4778  TIP4628     0.2052
 33246 H2         -22.2920    24.7610   -53.4770 H      4778  TIP4628     0.2052
 33247 OH2        -21.6380    -9.3100    47.4360 O.3    4779  TIP4629    -0.4105
 33248 H1         -20.7300    -9.1710    47.1670 H      4779  TIP4629     0.2052
 33249 H2         -22.0370    -9.7740    46.7000 H      4779  TIP4629     0.2052
 33250 OH2          4.3370    20.3570    23.3430 O.3    4780  TIP4630    -0.4105
 33251 H1           4.4780    20.4450    24.2850 H      4780  TIP4630     0.2052
 33252 H2           5.1690    20.0270    23.0050 H      4780  TIP4630     0.2052
 33253 OH2         22.8270   -28.4580    29.0720 O.3    4781  TIP4631    -0.4105
 33254 H1          22.0050   -28.9480    29.0970 H      4781  TIP4631     0.2052
 33255 H2          22.6050   -27.6390    28.6290 H      4781  TIP4631     0.2052
 33256 OH2         25.3040    26.5950   -27.4190 O.3    4782  TIP4632    -0.4105
 33257 H1          25.5170    27.1760   -26.6890 H      4782  TIP4632     0.2052
 33258 H2          24.8110    25.8780   -27.0190 H      4782  TIP4632     0.2052
 33259 OH2        -23.6990    20.6550   -51.4110 O.3    4783  TIP4633    -0.4105
 33260 H1         -24.3700    20.1490   -51.8700 H      4783  TIP4633     0.2052
 33261 H2         -24.1470    21.0010   -50.6390 H      4783  TIP4633     0.2052
 33262 OH2          1.2830   -15.1430    40.2590 O.3    4784  TIP4634    -0.4105
 33263 H1           2.1450   -14.7480    40.3930 H      4784  TIP4634     0.2052
 33264 H2           0.8090   -14.9670    41.0720 H      4784  TIP4634     0.2052
 33265 OH2         31.5000   -21.9120    46.5500 O.3    4785  TIP4635    -0.4105
 33266 H1          31.0590   -22.7600    46.4950 H      4785  TIP4635     0.2052
 33267 H2          31.9960   -21.9520    47.3680 H      4785  TIP4635     0.2052
 33268 OH2         -8.7510   -21.3620    52.1020 O.3    4786  TIP4636    -0.4105
 33269 H1          -7.9520   -21.5190    52.6050 H      4786  TIP4636     0.2052
 33270 H2          -8.4450   -20.9890    51.2750 H      4786  TIP4636     0.2052
 33271 OH2        -19.7750    12.2680    40.0480 O.3    4787  TIP4637    -0.4105
 33272 H1         -19.5600    12.7700    39.2620 H      4787  TIP4637     0.2052
 33273 H2         -18.9670    12.2690    40.5610 H      4787  TIP4637     0.2052
 33274 OH2        -12.6780    -5.1580   -19.8830 O.3    4788  TIP4638    -0.4105
 33275 H1         -12.2340    -5.0340   -19.0440 H      4788  TIP4638     0.2052
 33276 H2         -13.5960    -5.2990   -19.6490 H      4788  TIP4638     0.2052
 33277 OH2         25.8360    28.8380    36.3300 O.3    4789  TIP4639    -0.4105
 33278 H1          26.2850    28.4470    35.5810 H      4789  TIP4639     0.2052
 33279 H2          26.5340    29.0300    36.9560 H      4789  TIP4639     0.2052
 33280 OH2        -27.9660     1.8730   -26.3740 O.3    4790  TIP4640    -0.4105
 33281 H1         -27.6050     1.2590   -27.0130 H      4790  TIP4640     0.2052
 33282 H2         -27.3820     2.6300   -26.4120 H      4790  TIP4640     0.2052
 33283 OH2          2.6470    19.6670   -36.0080 O.3    4791  TIP4641    -0.4105
 33284 H1           2.9880    20.5450   -35.8420 H      4791  TIP4641     0.2052
 33285 H2           1.8430    19.6190   -35.4910 H      4791  TIP4641     0.2052
 33286 OH2          1.4170     2.6030   -14.6050 O.3    4792  TIP4642    -0.4105
 33287 H1           0.7720     2.8350   -13.9380 H      4792  TIP4642     0.2052
 33288 H2           2.1670     3.1670   -14.4210 H      4792  TIP4642     0.2052
 33289 OH2        -15.2310    24.5960   -27.5970 O.3    4793  TIP4643    -0.4105
 33290 H1         -14.8660    25.1640   -26.9180 H      4793  TIP4643     0.2052
 33291 H2         -16.1780    24.6560   -27.4770 H      4793  TIP4643     0.2052
 33292 OH2          2.4720    30.5010   -45.8980 O.3    4794  TIP4644    -0.4105
 33293 H1           2.4970    29.6160   -46.2610 H      4794  TIP4644     0.2052
 33294 H2           1.5450    30.6630   -45.7230 H      4794  TIP4644     0.2052
 33295 OH2          8.3730   -26.0520    49.2180 O.3    4795  TIP4645    -0.4105
 33296 H1           8.1300   -25.9840    50.1410 H      4795  TIP4645     0.2052
 33297 H2           8.7530   -26.9270    49.1330 H      4795  TIP4645     0.2052
 33298 OH2         22.9240    21.2830   -33.3040 O.3    4796  TIP4646    -0.4105
 33299 H1          22.3690    22.0590   -33.3740 H      4796  TIP4646     0.2052
 33300 H2          23.6930    21.5800   -32.8170 H      4796  TIP4646     0.2052
 33301 OH2         -8.9690     9.8910    46.1730 O.3    4797  TIP4647    -0.4105
 33302 H1          -8.9860     8.9450    46.0290 H      4797  TIP4647     0.2052
 33303 H2          -8.7930    10.2630    45.3090 H      4797  TIP4647     0.2052
 33304 OH2         11.4400   -28.4700    43.1480 O.3    4798  TIP4648    -0.4105
 33305 H1          11.7350   -27.6040    42.8660 H      4798  TIP4648     0.2052
 33306 H2          11.1680   -28.3470    44.0570 H      4798  TIP4648     0.2052
 33307 OH2         -7.7790     3.4110   -44.2160 O.3    4799  TIP4649    -0.4105
 33308 H1          -8.1660     3.6190   -45.0670 H      4799  TIP4649     0.2052
 33309 H2          -6.8810     3.7400   -44.2750 H      4799  TIP4649     0.2052
 33310 OH2         32.7960     2.8600   -40.5100 O.3    4800  TIP4650    -0.4105
 33311 H1          33.4520     3.4730   -40.8420 H      4800  TIP4650     0.2052
 33312 H2          32.6330     2.2640   -41.2410 H      4800  TIP4650     0.2052
 33313 OH2         30.5230     8.0670   -18.3190 O.3    4801  TIP4651    -0.4105
 33314 H1          31.1770     8.5630   -17.8270 H      4801  TIP4651     0.2052
 33315 H2          29.7900     8.6740   -18.4230 H      4801  TIP4651     0.2052
 33316 OH2          7.3710    22.7830   -17.8580 O.3    4802  TIP4652    -0.4105
 33317 H1           7.2600    21.8750   -18.1400 H      4802  TIP4652     0.2052
 33318 H2           8.2520    22.8120   -17.4860 H      4802  TIP4652     0.2052
 33319 OH2        -28.1910     8.1970   -25.8090 O.3    4803  TIP4653    -0.4105
 33320 H1         -28.8270     8.0510   -26.5100 H      4803  TIP4653     0.2052
 33321 H2         -27.3730     8.3950   -26.2650 H      4803  TIP4653     0.2052
 33322 OH2        -11.6500    23.2100   -54.7220 O.3    4804  TIP4654    -0.4105
 33323 H1         -11.1460    23.0310   -53.9290 H      4804  TIP4654     0.2052
 33324 H2         -11.1760    23.9210   -55.1530 H      4804  TIP4654     0.2052
 33325 OH2        -20.4740    20.7200   -32.4810 O.3    4805  TIP4655    -0.4105
 33326 H1         -20.2850    20.1190   -31.7610 H      4805  TIP4655     0.2052
 33327 H2         -19.7350    21.3300   -32.4840 H      4805  TIP4655     0.2052
 33328 OH2          8.7730   -31.0960   -33.2580 O.3    4806  TIP4656    -0.4105
 33329 H1           9.1730   -31.5700   -33.9880 H      4806  TIP4656     0.2052
 33330 H2           8.2640   -30.4010   -33.6740 H      4806  TIP4656     0.2052
 33331 OH2         -2.8580     0.4920   -30.4620 O.3    4807  TIP4657    -0.4105
 33332 H1          -2.3770     0.1560   -31.2180 H      4807  TIP4657     0.2052
 33333 H2          -3.7780     0.3320   -30.6730 H      4807  TIP4657     0.2052
 33334 OH2         -3.9720   -10.9080    36.1790 O.3    4808  TIP4658    -0.4105
 33335 H1          -3.6280   -11.7600    36.4470 H      4808  TIP4658     0.2052
 33336 H2          -4.8690   -10.8950    36.5140 H      4808  TIP4658     0.2052
 33337 OH2        -30.2080    18.0210    22.8940 O.3    4809  TIP4659    -0.4105
 33338 H1         -31.0500    18.0130    22.4390 H      4809  TIP4659     0.2052
 33339 H2         -30.3620    18.5500    23.6760 H      4809  TIP4659     0.2052
 33340 OH2        -29.4840   -28.1800    49.2120 O.3    4810  TIP4660    -0.4105
 33341 H1         -29.6820   -28.7750    49.9350 H      4810  TIP4660     0.2052
 33342 H2         -30.2900   -28.1520    48.6960 H      4810  TIP4660     0.2052
 33343 OH2         -3.1060    25.8420   -46.9120 O.3    4811  TIP4661    -0.4105
 33344 H1          -2.7480    25.6510   -47.7790 H      4811  TIP4661     0.2052
 33345 H2          -2.5070    26.4920   -46.5430 H      4811  TIP4661     0.2052
 33346 OH2        -11.2980    27.4400    32.4870 O.3    4812  TIP4662    -0.4105
 33347 H1         -10.7820    26.6350    32.5250 H      4812  TIP4662     0.2052
 33348 H2         -12.1820    27.1710    32.7370 H      4812  TIP4662     0.2052
 33349 OH2          1.3590    28.2430   -36.9450 O.3    4813  TIP4663    -0.4105
 33350 H1           0.9790    27.5270   -37.4550 H      4813  TIP4663     0.2052
 33351 H2           1.4270    27.8950   -36.0560 H      4813  TIP4663     0.2052
 33352 OH2        -10.3260   -19.4620   -42.3760 O.3    4814  TIP4664    -0.4105
 33353 H1         -10.0460   -19.0360   -41.5660 H      4814  TIP4664     0.2052
 33354 H2          -9.6000   -19.3210   -42.9840 H      4814  TIP4664     0.2052
 33355 OH2        -31.5160   -29.2980   -30.4470 O.3    4815  TIP4665    -0.4105
 33356 H1         -31.5590   -28.7270   -31.2140 H      4815  TIP4665     0.2052
 33357 H2         -30.5810   -29.3740   -30.2560 H      4815  TIP4665     0.2052
 33358 OH2         26.2040     2.0820   -24.9480 O.3    4816  TIP4666    -0.4105
 33359 H1          26.4500     1.2180   -25.2790 H      4816  TIP4666     0.2052
 33360 H2          26.8930     2.6660   -25.2660 H      4816  TIP4666     0.2052
 33361 OH2        -19.1550   -13.5740   -41.4250 O.3    4817  TIP4667    -0.4105
 33362 H1         -18.5360   -14.2580   -41.6790 H      4817  TIP4667     0.2052
 33363 H2         -18.6260   -12.7780   -41.3740 H      4817  TIP4667     0.2052
 33364 OH2         23.7040    -3.4220    20.9620 O.3    4818  TIP4668    -0.4105
 33365 H1          23.3790    -2.5330    20.8180 H      4818  TIP4668     0.2052
 33366 H2          23.6930    -3.8250    20.0940 H      4818  TIP4668     0.2052
 33367 OH2         -8.8530    -3.9190   -27.6360 O.3    4819  TIP4669    -0.4105
 33368 H1          -8.2580    -4.1370   -26.9180 H      4819  TIP4669     0.2052
 33369 H2          -9.3150    -4.7370   -27.8210 H      4819  TIP4669     0.2052
 33370 OH2         23.1780    25.0430   -45.1020 O.3    4820  TIP4670    -0.4105
 33371 H1          22.2860    25.3240   -44.8990 H      4820  TIP4670     0.2052
 33372 H2          23.2820    25.2300   -46.0350 H      4820  TIP4670     0.2052
 33373 OH2        -22.7810    20.3800   -23.9120 O.3    4821  TIP4671    -0.4105
 33374 H1         -22.2630    19.9760   -23.2150 H      4821  TIP4671     0.2052
 33375 H2         -23.3180    19.6670   -24.2560 H      4821  TIP4671     0.2052
 33376 OH2         14.9590   -24.5700    35.5740 O.3    4822  TIP4672    -0.4105
 33377 H1          14.6040   -23.9110    34.9770 H      4822  TIP4672     0.2052
 33378 H2          15.6160   -24.1000    36.0870 H      4822  TIP4672     0.2052
 33379 OH2        -17.4640    17.3570    40.5500 O.3    4823  TIP4673    -0.4105
 33380 H1         -17.7040    18.0760    39.9650 H      4823  TIP4673     0.2052
 33381 H2         -18.0240    17.4750    41.3180 H      4823  TIP4673     0.2052
 33382 OH2         11.1410    -3.8420   -47.0630 O.3    4824  TIP4674    -0.4105
 33383 H1          10.5850    -4.0650   -46.3170 H      4824  TIP4674     0.2052
 33384 H2          10.6830    -3.1230   -47.4980 H      4824  TIP4674     0.2052
 33385 OH2         23.5550     3.3390   -24.9000 O.3    4825  TIP4675    -0.4105
 33386 H1          23.4960     2.8650   -25.7300 H      4825  TIP4675     0.2052
 33387 H2          24.3580     3.0140   -24.4940 H      4825  TIP4675     0.2052
 33388 OH2         -1.4910    21.5600    17.4760 O.3    4826  TIP4676    -0.4105
 33389 H1          -1.5820    21.4260    16.5320 H      4826  TIP4676     0.2052
 33390 H2          -0.7930    22.2090    17.5600 H      4826  TIP4676     0.2052
 33391 OH2         30.3260    14.4420   -50.0190 O.3    4827  TIP4677    -0.4105
 33392 H1          30.7820    13.7010   -49.6210 H      4827  TIP4677     0.2052
 33393 H2          30.9000    14.7210   -50.7320 H      4827  TIP4677     0.2052
 33394 OH2         -8.4990    31.8040   -35.8900 O.3    4828  TIP4678    -0.4105
 33395 H1          -8.5980    32.5430   -35.2890 H      4828  TIP4678     0.2052
 33396 H2          -8.9670    32.0740   -36.6800 H      4828  TIP4678     0.2052
 33397 OH2         16.2230    22.2600   -32.4880 O.3    4829  TIP4679    -0.4105
 33398 H1          15.4210    22.5930   -32.0860 H      4829  TIP4679     0.2052
 33399 H2          16.2520    21.3370   -32.2370 H      4829  TIP4679     0.2052
 33400 OH2         28.5000    10.2640   -37.8210 O.3    4830  TIP4680    -0.4105
 33401 H1          28.5380    10.6500   -36.9460 H      4830  TIP4680     0.2052
 33402 H2          29.3990    10.3160   -38.1460 H      4830  TIP4680     0.2052
 33403 OH2          8.6230     4.8670    30.1240 O.3    4831  TIP4681    -0.4105
 33404 H1           9.2250     5.1250    29.4270 H      4831  TIP4681     0.2052
 33405 H2           7.7830     4.7420    29.6820 H      4831  TIP4681     0.2052
 33406 OH2          6.9380    20.3490   -32.0560 O.3    4832  TIP4682    -0.4105
 33407 H1           7.1880    20.4350   -32.9760 H      4832  TIP4682     0.2052
 33408 H2           6.5820    19.4640   -31.9850 H      4832  TIP4682     0.2052
 33409 OH2        -14.8050   -30.4020    30.3850 O.3    4833  TIP4683    -0.4105
 33410 H1         -15.4950   -30.0060    30.9170 H      4833  TIP4683     0.2052
 33411 H2         -15.0010   -31.3390    30.3960 H      4833  TIP4683     0.2052
 33412 OH2        -17.3400    16.2910    30.4600 O.3    4834  TIP4684    -0.4105
 33413 H1         -16.8480    15.6860    31.0150 H      4834  TIP4684     0.2052
 33414 H2         -18.2500    16.1830    30.7350 H      4834  TIP4684     0.2052
 33415 OH2         30.0940    -4.4490   -39.2620 O.3    4835  TIP4685    -0.4105
 33416 H1          30.5560    -3.6120   -39.2100 H      4835  TIP4685     0.2052
 33417 H2          30.1170    -4.6780   -40.1920 H      4835  TIP4685     0.2052
 33418 OH2         28.9680    28.6280   -30.5510 O.3    4836  TIP4686    -0.4105
 33419 H1          28.0560    28.9160   -30.5090 H      4836  TIP4686     0.2052
 33420 H2          29.3980    29.0860   -29.8290 H      4836  TIP4686     0.2052
 33421 OH2        -29.3540    -0.8760   -38.0790 O.3    4837  TIP4687    -0.4105
 33422 H1         -29.5450    -1.1740   -38.9690 H      4837  TIP4687     0.2052
 33423 H2         -29.8970    -0.0960   -37.9660 H      4837  TIP4687     0.2052
 33424 OH2        -14.8390   -22.8130    44.7730 O.3    4838  TIP4688    -0.4105
 33425 H1         -15.7160   -23.0120    45.1030 H      4838  TIP4688     0.2052
 33426 H2         -14.9360   -21.9700    44.3300 H      4838  TIP4688     0.2052
 33427 OH2        -16.5050   -11.0410   -38.8920 O.3    4839  TIP4689    -0.4105
 33428 H1         -16.8640   -11.4360   -38.0980 H      4839  TIP4689     0.2052
 33429 H2         -17.1870   -11.1640   -39.5520 H      4839  TIP4689     0.2052
 33430 OH2         13.6340   -25.7250   -40.3120 O.3    4840  TIP4690    -0.4105
 33431 H1          13.4770   -26.6050   -39.9690 H      4840  TIP4690     0.2052
 33432 H2          12.9420   -25.5940   -40.9610 H      4840  TIP4690     0.2052
 33433 OH2         29.0990    20.3610    16.5660 O.3    4841  TIP4691    -0.4105
 33434 H1          29.7050    21.1010    16.6110 H      4841  TIP4691     0.2052
 33435 H2          29.4580    19.7990    15.8790 H      4841  TIP4691     0.2052
 33436 OH2        -11.9030    30.3350   -45.5860 O.3    4842  TIP4692    -0.4105
 33437 H1         -11.3120    30.3030   -46.3390 H      4842  TIP4692     0.2052
 33438 H2         -12.7800    30.3320   -45.9700 H      4842  TIP4692     0.2052
 33439 OH2         15.5120    14.7030   -48.7390 O.3    4843  TIP4693    -0.4105
 33440 H1          15.6620    13.7710   -48.8960 H      4843  TIP4693     0.2052
 33441 H2          14.7680    14.7290   -48.1370 H      4843  TIP4693     0.2052
 33442 OH2        -29.2180     0.5250   -48.1800 O.3    4844  TIP4694    -0.4105
 33443 H1         -29.4280    -0.3820   -47.9590 H      4844  TIP4694     0.2052
 33444 H2         -29.1290     0.5270   -49.1330 H      4844  TIP4694     0.2052
 33445 OH2         27.0160     3.1190   -48.6900 O.3    4845  TIP4695    -0.4105
 33446 H1          26.8850     3.0700   -49.6370 H      4845  TIP4695     0.2052
 33447 H2          27.9590     3.2450   -48.5840 H      4845  TIP4695     0.2052
 33448 OH2         25.8680   -31.0410   -44.0720 O.3    4846  TIP4696    -0.4105
 33449 H1          25.2180   -31.3110   -43.4230 H      4846  TIP4696     0.2052
 33450 H2          26.5350   -30.5780   -43.5660 H      4846  TIP4696     0.2052
 33451 OH2         13.6180    -5.7290    52.0270 O.3    4847  TIP4697    -0.4105
 33452 H1          13.1120    -6.1030    51.3050 H      4847  TIP4697     0.2052
 33453 H2          13.3540    -4.8100    52.0540 H      4847  TIP4697     0.2052
 33454 OH2        -30.1210     8.7730   -32.3400 O.3    4848  TIP4698    -0.4105
 33455 H1         -29.9500     9.6790   -32.0840 H      4848  TIP4698     0.2052
 33456 H2         -29.4660     8.5850   -33.0110 H      4848  TIP4698     0.2052
 33457 OH2          4.5630   -30.1010    30.4860 O.3    4849  TIP4699    -0.4105
 33458 H1           4.3350   -30.5620    29.6790 H      4849  TIP4699     0.2052
 33459 H2           5.3540   -29.6080    30.2660 H      4849  TIP4699     0.2052
 33460 OH2         22.2080   -30.7700   -51.0390 O.3    4850  TIP4700    -0.4105
 33461 H1          22.5600   -31.0820   -51.8720 H      4850  TIP4700     0.2052
 33462 H2          22.7300   -29.9950   -50.8320 H      4850  TIP4700     0.2052
 33463 OH2         13.6990     2.7360    30.4290 O.3    4851  TIP4701    -0.4105
 33464 H1          14.3310     2.8110    31.1430 H      4851  TIP4701     0.2052
 33465 H2          12.9340     2.3210    30.8270 H      4851  TIP4701     0.2052
 33466 OH2        -18.5340   -27.9990   -36.3700 O.3    4852  TIP4702    -0.4105
 33467 H1         -19.2970   -28.2020   -35.8280 H      4852  TIP4702     0.2052
 33468 H2         -18.6750   -28.4940   -37.1770 H      4852  TIP4702     0.2052
 33469 OH2          4.2230    18.9550   -41.7880 O.3    4853  TIP4703    -0.4105
 33470 H1           3.7820    19.8040   -41.7580 H      4853  TIP4703     0.2052
 33471 H2           3.5520    18.3270   -41.5220 H      4853  TIP4703     0.2052
 33472 OH2         10.1500   -10.0640   -21.2530 O.3    4854  TIP4704    -0.4105
 33473 H1          10.4710   -10.1400   -22.1520 H      4854  TIP4704     0.2052
 33474 H2          10.6400    -9.3290   -20.8850 H      4854  TIP4704     0.2052
 33475 OH2         -4.1050    16.0040   -20.3430 O.3    4855  TIP4705    -0.4105
 33476 H1          -3.3740    15.4690   -20.0350 H      4855  TIP4705     0.2052
 33477 H2          -4.8820    15.5890   -19.9680 H      4855  TIP4705     0.2052
 33478 OH2        -21.8400    -4.5170    34.3800 O.3    4856  TIP4706    -0.4105
 33479 H1         -22.2850    -4.9420    35.1130 H      4856  TIP4706     0.2052
 33480 H2         -22.0060    -5.0920    33.6320 H      4856  TIP4706     0.2052
 33481 OH2         27.6650   -21.5100   -36.4140 O.3    4857  TIP4707    -0.4105
 33482 H1          27.8500   -20.8430   -37.0740 H      4857  TIP4707     0.2052
 33483 H2          27.8190   -22.3410   -36.8630 H      4857  TIP4707     0.2052
 33484 OH2         31.2780     0.4000    50.0760 O.3    4858  TIP4708    -0.4105
 33485 H1          30.7890     0.1560    50.8620 H      4858  TIP4708     0.2052
 33486 H2          32.1850     0.4770    50.3720 H      4858  TIP4708     0.2052
 33487 OH2        -14.5660    20.7970   -49.7410 O.3    4859  TIP4709    -0.4105
 33488 H1         -14.2770    20.1170   -50.3500 H      4859  TIP4709     0.2052
 33489 H2         -15.4920    20.9260   -49.9480 H      4859  TIP4709     0.2052
 33490 OH2         16.0030   -15.9140   -53.4640 O.3    4860  TIP4710    -0.4105
 33491 H1          16.9460   -15.8890   -53.6240 H      4860  TIP4710     0.2052
 33492 H2          15.7520   -16.8190   -53.6480 H      4860  TIP4710     0.2052
 33493 OH2        -13.8380   -28.3730   -35.1740 O.3    4861  TIP4711    -0.4105
 33494 H1         -14.6630   -28.5320   -34.7150 H      4861  TIP4711     0.2052
 33495 H2         -13.1660   -28.7210   -34.5880 H      4861  TIP4711     0.2052
 33496 OH2         17.4910   -19.8670    48.5720 O.3    4862  TIP4712    -0.4105
 33497 H1          17.6620   -19.2650    47.8480 H      4862  TIP4712     0.2052
 33498 H2          18.2190   -19.7270    49.1770 H      4862  TIP4712     0.2052
 33499 OH2         31.4020   -24.5130   -33.2810 O.3    4863  TIP4713    -0.4105
 33500 H1          31.2230   -25.2040   -33.9190 H      4863  TIP4713     0.2052
 33501 H2          30.5490   -24.1090   -33.1200 H      4863  TIP4713     0.2052
 33502 OH2          2.6880     0.8360    -6.8850 O.3    4864  TIP4714    -0.4105
 33503 H1           2.5440     0.1100    -7.4920 H      4864  TIP4714     0.2052
 33504 H2           1.8080     1.1350    -6.6550 H      4864  TIP4714     0.2052
 33505 OH2        -23.0920    27.1380    46.2310 O.3    4865  TIP4715    -0.4105
 33506 H1         -23.7610    27.5220    45.6630 H      4865  TIP4715     0.2052
 33507 H2         -22.5220    26.6510    45.6360 H      4865  TIP4715     0.2052
 33508 OH2         24.8050    13.9060   -22.1850 O.3    4866  TIP4716    -0.4105
 33509 H1          25.5430    14.4110   -22.5270 H      4866  TIP4716     0.2052
 33510 H2          24.1960    14.5660   -21.8550 H      4866  TIP4716     0.2052
 33511 OH2         11.3000    -1.4930    30.0700 O.3    4867  TIP4717    -0.4105
 33512 H1          12.0790    -1.9920    29.8220 H      4867  TIP4717     0.2052
 33513 H2          11.0380    -1.8610    30.9140 H      4867  TIP4717     0.2052
 33514 OH2         23.6390     2.4630    28.8050 O.3    4868  TIP4718    -0.4105
 33515 H1          23.3490     3.2130    28.2860 H      4868  TIP4718     0.2052
 33516 H2          23.0260     2.4270    29.5400 H      4868  TIP4718     0.2052
 33517 OH2        -27.8420   -11.1140    29.0310 O.3    4869  TIP4719    -0.4105
 33518 H1         -28.7080   -11.3590    29.3560 H      4869  TIP4719     0.2052
 33519 H2         -27.2360   -11.4360    29.6980 H      4869  TIP4719     0.2052
 33520 OH2        -11.6830    -8.8370   -28.4630 O.3    4870  TIP4720    -0.4105
 33521 H1         -12.5800    -8.8500   -28.1280 H      4870  TIP4720     0.2052
 33522 H2         -11.7600    -9.1500   -29.3650 H      4870  TIP4720     0.2052
 33523 OH2        -10.5110     9.4120    35.6930 O.3    4871  TIP4721    -0.4105
 33524 H1         -11.2880     9.9390    35.8730 H      4871  TIP4721     0.2052
 33525 H2         -10.4560     9.3820    34.7380 H      4871  TIP4721     0.2052
 33526 OH2         20.4380   -27.1420   -29.7430 O.3    4872  TIP4722    -0.4105
 33527 H1          19.6310   -27.6190   -29.9370 H      4872  TIP4722     0.2052
 33528 H2          20.1630   -26.4320   -29.1620 H      4872  TIP4722     0.2052
 33529 OH2         -0.9250   -18.7590   -33.5790 O.3    4873  TIP4723    -0.4105
 33530 H1          -0.5180   -18.1040   -33.0120 H      4873  TIP4723     0.2052
 33531 H2          -1.8540   -18.7300   -33.3500 H      4873  TIP4723     0.2052
 33532 OH2         25.9640    28.8170    43.7570 O.3    4874  TIP4724    -0.4105
 33533 H1          26.0510    28.2510    42.9900 H      4874  TIP4724     0.2052
 33534 H2          25.5390    28.2670    44.4140 H      4874  TIP4724     0.2052
 33535 OH2         13.5760   -13.4900    27.1410 O.3    4875  TIP4725    -0.4105
 33536 H1          13.9590   -13.8140    27.9560 H      4875  TIP4725     0.2052
 33537 H2          14.0470   -13.9570    26.4510 H      4875  TIP4725     0.2052
 33538 OH2          4.0960     0.5830   -30.3460 O.3    4876  TIP4726    -0.4105
 33539 H1           4.2910     1.5150   -30.4390 H      4876  TIP4726     0.2052
 33540 H2           3.9810     0.2710   -31.2430 H      4876  TIP4726     0.2052
 33541 OH2         -4.3230    13.9890    43.6490 O.3    4877  TIP4727    -0.4105
 33542 H1          -4.2600    14.1500    44.5900 H      4877  TIP4727     0.2052
 33543 H2          -5.1120    14.4580    43.3770 H      4877  TIP4727     0.2052
 33544 OH2        -27.1630    10.9590   -40.2310 O.3    4878  TIP4728    -0.4105
 33545 H1         -27.4530    11.2150   -41.1060 H      4878  TIP4728     0.2052
 33546 H2         -27.5170    11.6360   -39.6540 H      4878  TIP4728     0.2052
 33547 OH2         24.6700    31.7370    32.7810 O.3    4879  TIP4729    -0.4105
 33548 H1          23.9250    31.6630    32.1850 H      4879  TIP4729     0.2052
 33549 H2          25.3060    31.1030    32.4500 H      4879  TIP4729     0.2052
 33550 OH2        -16.4170    -8.9750   -55.4460 O.3    4880  TIP4730    -0.4105
 33551 H1         -16.7620    -8.0940   -55.5940 H      4880  TIP4730     0.2052
 33552 H2         -17.1060    -9.5590   -55.7640 H      4880  TIP4730     0.2052
 33553 OH2        -21.5080    11.9090   -35.9060 O.3    4881  TIP4731    -0.4105
 33554 H1         -20.5570    11.9260   -35.7980 H      4881  TIP4731     0.2052
 33555 H2         -21.7640    11.0280   -35.6300 H      4881  TIP4731     0.2052
 33556 OH2          2.3960     3.3950   -22.5220 O.3    4882  TIP4732    -0.4105
 33557 H1           2.2070     2.4590   -22.4650 H      4882  TIP4732     0.2052
 33558 H2           2.5300     3.6690   -21.6150 H      4882  TIP4732     0.2052
 33559 OH2         16.8310    11.2860   -41.0550 O.3    4883  TIP4733    -0.4105
 33560 H1          17.0800    11.6270   -40.1960 H      4883  TIP4733     0.2052
 33561 H2          16.0730    11.8100   -41.3110 H      4883  TIP4733     0.2052
 33562 OH2          3.6480   -30.9840    53.3300 O.3    4884  TIP4734    -0.4105
 33563 H1           3.1150   -30.4070    52.7830 H      4884  TIP4734     0.2052
 33564 H2           4.0190   -31.6190    52.7180 H      4884  TIP4734     0.2052
 33565 OH2         26.5890   -25.8190   -53.6180 O.3    4885  TIP4735    -0.4105
 33566 H1          26.6390   -26.6130   -53.0860 H      4885  TIP4735     0.2052
 33567 H2          26.2220   -26.1110   -54.4520 H      4885  TIP4735     0.2052
 33568 OH2          0.3590    27.2930    35.0020 O.3    4886  TIP4736    -0.4105
 33569 H1           0.6200    27.8600    35.7280 H      4886  TIP4736     0.2052
 33570 H2           0.2110    26.4380    35.4070 H      4886  TIP4736     0.2052
 33571 OH2          3.7980   -12.0410   -15.5010 O.3    4887  TIP4737    -0.4105
 33572 H1           2.9320   -11.7980   -15.8270 H      4887  TIP4737     0.2052
 33573 H2           3.6520   -12.8510   -15.0120 H      4887  TIP4737     0.2052
 33574 OH2         -6.6970   -20.4050    31.0830 O.3    4888  TIP4738    -0.4105
 33575 H1          -6.7470   -19.4630    30.9150 H      4888  TIP4738     0.2052
 33576 H2          -6.1350   -20.4820    31.8540 H      4888  TIP4738     0.2052
 33577 OH2        -20.8900    -6.4980   -17.7120 O.3    4889  TIP4739    -0.4105
 33578 H1         -21.1530    -6.8050   -18.5790 H      4889  TIP4739     0.2052
 33579 H2         -20.7960    -7.2970   -17.1930 H      4889  TIP4739     0.2052
 33580 OH2        -29.1930   -22.4610   -29.4790 O.3    4890  TIP4740    -0.4105
 33581 H1         -29.5930   -23.2930   -29.2250 H      4890  TIP4740     0.2052
 33582 H2         -28.7550   -22.1540   -28.6850 H      4890  TIP4740     0.2052
 33583 OH2        -27.6710    24.0290    25.2510 O.3    4891  TIP4741    -0.4105
 33584 H1         -27.8230    23.8330    26.1750 H      4891  TIP4741     0.2052
 33585 H2         -26.7700    24.3520    25.2190 H      4891  TIP4741     0.2052
 33586 OH2         25.4550     8.6990   -33.1170 O.3    4892  TIP4742    -0.4105
 33587 H1          24.7000     8.4210   -33.6360 H      4892  TIP4742     0.2052
 33588 H2          26.2140     8.4160   -33.6270 H      4892  TIP4742     0.2052
 33589 OH2         25.0110   -21.9020   -33.2430 O.3    4893  TIP4743    -0.4105
 33590 H1          24.5640   -21.7730   -32.4060 H      4893  TIP4743     0.2052
 33591 H2          25.7870   -21.3450   -33.1890 H      4893  TIP4743     0.2052
 33592 OH2         21.9400     1.1430    49.3410 O.3    4894  TIP4744    -0.4105
 33593 H1          21.0680     1.4350    49.6070 H      4894  TIP4744     0.2052
 33594 H2          22.0180     1.4220    48.4280 H      4894  TIP4744     0.2052
 33595 OH2        -16.2720    31.2830    48.2470 O.3    4895  TIP4745    -0.4105
 33596 H1         -17.2110    31.2220    48.4220 H      4895  TIP4745     0.2052
 33597 H2         -15.9690    31.9970    48.8080 H      4895  TIP4745     0.2052
 33598 OH2        -31.7540    -5.7210    34.7850 O.3    4896  TIP4746    -0.4105
 33599 H1         -32.4190    -6.4100    34.7810 H      4896  TIP4746     0.2052
 33600 H2         -31.9910    -5.1530    34.0520 H      4896  TIP4746     0.2052
 33601 OH2        -18.0190     9.1160    18.8710 O.3    4897  TIP4747    -0.4105
 33602 H1         -17.2410     8.6510    18.5620 H      4897  TIP4747     0.2052
 33603 H2         -18.0810     9.8840    18.3030 H      4897  TIP4747     0.2052
 33604 OH2        -13.4910   -13.3710    29.9910 O.3    4898  TIP4748    -0.4105
 33605 H1         -12.7900   -13.4310    29.3420 H      4898  TIP4748     0.2052
 33606 H2         -14.2950   -13.3330    29.4720 H      4898  TIP4748     0.2052
 33607 OH2        -30.3730    12.7330   -44.1230 O.3    4899  TIP4749    -0.4105
 33608 H1         -30.7550    13.0950   -43.3240 H      4899  TIP4749     0.2052
 33609 H2         -31.1160    12.6270   -44.7170 H      4899  TIP4749     0.2052
 33610 OH2        -11.3690    24.9660    38.5550 O.3    4900  TIP4750    -0.4105
 33611 H1         -11.4990    25.9140    38.5280 H      4900  TIP4750     0.2052
 33612 H2         -12.1710    24.6250    38.9500 H      4900  TIP4750     0.2052
 33613 OH2        -12.3970     1.9470   -42.7400 O.3    4901  TIP4751    -0.4105
 33614 H1         -12.9130     2.6420   -43.1480 H      4901  TIP4751     0.2052
 33615 H2         -12.0690     2.3350   -41.9290 H      4901  TIP4751     0.2052
 33616 OH2          7.7630     4.2390    43.0390 O.3    4902  TIP4752    -0.4105
 33617 H1           8.2170     3.5820    42.5110 H      4902  TIP4752     0.2052
 33618 H2           8.4320     4.8940    43.2360 H      4902  TIP4752     0.2052
 33619 OH2        -13.6160   -25.1920    45.0320 O.3    4903  TIP4753    -0.4105
 33620 H1         -14.0540   -24.3410    45.0070 H      4903  TIP4753     0.2052
 33621 H2         -13.4290   -25.3380    45.9590 H      4903  TIP4753     0.2052
 33622 OH2         15.7270   -27.2370   -20.2790 O.3    4904  TIP4754    -0.4105
 33623 H1          16.6640   -27.3570   -20.4330 H      4904  TIP4754     0.2052
 33624 H2          15.6790   -26.5510   -19.6130 H      4904  TIP4754     0.2052
 33625 OH2          2.4050   -13.2580   -48.6330 O.3    4905  TIP4755    -0.4105
 33626 H1           2.7020   -12.7860   -49.4110 H      4905  TIP4755     0.2052
 33627 H2           3.2080   -13.4530   -48.1500 H      4905  TIP4755     0.2052
 33628 OH2         -5.3050    18.8940   -55.3290 O.3    4906  TIP4756    -0.4105
 33629 H1          -4.9370    18.7790   -54.4530 H      4906  TIP4756     0.2052
 33630 H2          -5.9360    18.1800   -55.4200 H      4906  TIP4756     0.2052
 33631 OH2          1.1970     1.9580   -54.0620 O.3    4907  TIP4757    -0.4105
 33632 H1           1.3440     1.1730   -53.5340 H      4907  TIP4757     0.2052
 33633 H2           0.2720     1.9160   -54.3030 H      4907  TIP4757     0.2052
 33634 OH2        -22.4140   -23.3460   -45.1620 O.3    4908  TIP4758    -0.4105
 33635 H1         -23.1360   -23.9670   -45.2590 H      4908  TIP4758     0.2052
 33636 H2         -22.2700   -23.0060   -46.0460 H      4908  TIP4758     0.2052
 33637 OH2        -15.1220    20.5650    46.0230 O.3    4909  TIP4759    -0.4105
 33638 H1         -14.2130    20.8620    45.9970 H      4909  TIP4759     0.2052
 33639 H2         -15.3870    20.5210    45.1040 H      4909  TIP4759     0.2052
 33640 OH2          3.0280    -6.3120    29.4190 O.3    4910  TIP4760    -0.4105
 33641 H1           3.2340    -6.3700    30.3520 H      4910  TIP4760     0.2052
 33642 H2           2.5220    -5.5040    29.3350 H      4910  TIP4760     0.2052
 33643 OH2        -11.8750     7.9350    44.2760 O.3    4911  TIP4761    -0.4105
 33644 H1         -10.9360     7.7740    44.1800 H      4911  TIP4761     0.2052
 33645 H2         -11.9310     8.8170    44.6440 H      4911  TIP4761     0.2052
 33646 OH2         31.4410   -25.2860   -42.8740 O.3    4912  TIP4762    -0.4105
 33647 H1          30.5640   -25.1430   -42.5190 H      4912  TIP4762     0.2052
 33648 H2          31.7380   -24.4150   -43.1390 H      4912  TIP4762     0.2052
 33649 OH2         21.2250    -8.1770   -38.6470 O.3    4913  TIP4763    -0.4105
 33650 H1          21.2370    -8.9830   -39.1630 H      4913  TIP4763     0.2052
 33651 H2          21.4400    -7.4870   -39.2750 H      4913  TIP4763     0.2052
 33652 OH2         10.4740    -1.4860   -28.1010 O.3    4914  TIP4764    -0.4105
 33653 H1           9.8750    -1.2060   -27.4090 H      4914  TIP4764     0.2052
 33654 H2          10.0170    -2.2030   -28.5390 H      4914  TIP4764     0.2052
 33655 OH2          3.5720    -9.6130    45.8430 O.3    4915  TIP4765    -0.4105
 33656 H1           3.0270    -9.2600    46.5460 H      4915  TIP4765     0.2052
 33657 H2           3.6060   -10.5540    46.0160 H      4915  TIP4765     0.2052
 33658 OH2         -3.3270   -18.8430    38.7990 O.3    4916  TIP4766    -0.4105
 33659 H1          -4.2590   -18.7640    38.5950 H      4916  TIP4766     0.2052
 33660 H2          -3.1980   -19.7750    38.9740 H      4916  TIP4766     0.2052
 33661 OH2          1.1300    19.7430   -41.0280 O.3    4917  TIP4767    -0.4105
 33662 H1           1.7090    20.4770   -40.8240 H      4917  TIP4767     0.2052
 33663 H2           0.7420    19.5020   -40.1860 H      4917  TIP4767     0.2052
 33664 OH2         16.8970    19.3330   -31.7250 O.3    4918  TIP4768    -0.4105
 33665 H1          17.3460    19.5910   -30.9200 H      4918  TIP4768     0.2052
 33666 H2          16.4810    18.4980   -31.5110 H      4918  TIP4768     0.2052
 33667 OH2          7.3630     1.5400    38.4390 O.3    4919  TIP4769    -0.4105
 33668 H1           6.9180     1.8570    39.2260 H      4919  TIP4769     0.2052
 33669 H2           8.2940     1.6430    38.6330 H      4919  TIP4769     0.2052
 33670 OH2         24.3900    11.9400    52.9020 O.3    4920  TIP4770    -0.4105
 33671 H1          25.1810    12.3530    52.5530 H      4920  TIP4770     0.2052
 33672 H2          24.7130    11.1990    53.4140 H      4920  TIP4770     0.2052
 33673 OH2        -10.7500   -23.4480   -53.3520 O.3    4921  TIP4771    -0.4105
 33674 H1          -9.9000   -23.3330   -52.9260 H      4921  TIP4771     0.2052
 33675 H2         -11.0720   -22.5570   -53.4890 H      4921  TIP4771     0.2052
 33676 OH2        -32.9190    -8.7280    55.3000 O.3    4922  TIP4772    -0.4105
 33677 H1         -32.8070    -9.5720    55.7370 H      4922  TIP4772     0.2052
 33678 H2         -33.7430    -8.8140    54.8200 H      4922  TIP4772     0.2052
 33679 OH2         25.5870     8.3120    30.1600 O.3    4923  TIP4773    -0.4105
 33680 H1          25.0160     7.9780    29.4680 H      4923  TIP4773     0.2052
 33681 H2          25.5180     7.6650    30.8620 H      4923  TIP4773     0.2052
 33682 OH2         25.0950    13.3810    44.7220 O.3    4924  TIP4774    -0.4105
 33683 H1          24.7170    13.7070    43.9050 H      4924  TIP4774     0.2052
 33684 H2          24.3440    13.0670    45.2250 H      4924  TIP4774     0.2052
 33685 OH2         -8.9340   -13.5680   -46.1500 O.3    4925  TIP4775    -0.4105
 33686 H1          -8.3390   -14.2970   -45.9720 H      4925  TIP4775     0.2052
 33687 H2          -9.2980   -13.7600   -47.0130 H      4925  TIP4775     0.2052
 33688 OH2         -5.2960    14.6710    53.9150 O.3    4926  TIP4776    -0.4105
 33689 H1          -4.5480    15.2670    53.8690 H      4926  TIP4776     0.2052
 33690 H2          -5.5300    14.5090    53.0020 H      4926  TIP4776     0.2052
 33691 OH2         -0.2010    22.0710    29.2700 O.3    4927  TIP4777    -0.4105
 33692 H1           0.7370    22.1650    29.4370 H      4927  TIP4777     0.2052
 33693 H2          -0.3930    21.1580    29.4850 H      4927  TIP4777     0.2052
 33694 OH2        -12.7700     7.7810   -13.6820 O.3    4928  TIP4778    -0.4105
 33695 H1         -12.1330     7.2520   -14.1630 H      4928  TIP4778     0.2052
 33696 H2         -12.5790     8.6820   -13.9410 H      4928  TIP4778     0.2052
 33697 OH2        -27.0820    -3.8160    34.4580 O.3    4929  TIP4779    -0.4105
 33698 H1         -27.7880    -3.8440    35.1030 H      4929  TIP4779     0.2052
 33699 H2         -26.5940    -4.6270    34.6010 H      4929  TIP4779     0.2052
 33700 OH2         30.9260    27.5440   -52.3260 O.3    4930  TIP4780    -0.4105
 33701 H1          30.9450    28.4080   -52.7370 H      4930  TIP4780     0.2052
 33702 H2          30.0930    27.1630   -52.6060 H      4930  TIP4780     0.2052
 33703 OH2          0.4240   -27.5280   -45.2410 O.3    4931  TIP4781    -0.4105
 33704 H1           0.2480   -27.8520   -44.3580 H      4931  TIP4781     0.2052
 33705 H2           0.3900   -28.3080   -45.7950 H      4931  TIP4781     0.2052
 33706 OH2         15.4380   -30.5080   -46.2420 O.3    4932  TIP4782    -0.4105
 33707 H1          16.1050   -31.1160   -45.9220 H      4932  TIP4782     0.2052
 33708 H2          15.7250   -29.6500   -45.9280 H      4932  TIP4782     0.2052
 33709 OH2        -32.7130    -7.9190    32.5930 O.3    4933  TIP4783    -0.4105
 33710 H1         -33.1970    -7.9300    33.4200 H      4933  TIP4783     0.2052
 33711 H2         -33.1360    -8.5910    32.0590 H      4933  TIP4783     0.2052
 33712 OH2         15.0280     8.2620    26.2770 O.3    4934  TIP4784    -0.4105
 33713 H1          15.4220     9.1230    26.4210 H      4934  TIP4784     0.2052
 33714 H2          14.0900     8.4390    26.1940 H      4934  TIP4784     0.2052
 33715 OH2         23.0270    -8.0320    53.8910 O.3    4935  TIP4785    -0.4105
 33716 H1          22.4840    -8.5040    54.5230 H      4935  TIP4785     0.2052
 33717 H2          22.7170    -7.1280    53.9360 H      4935  TIP4785     0.2052
 33718 OH2         -7.5550    -1.7190   -15.7800 O.3    4936  TIP4786    -0.4105
 33719 H1          -7.2940    -0.8670   -15.4300 H      4936  TIP4786     0.2052
 33720 H2          -6.7520    -2.2390   -15.7690 H      4936  TIP4786     0.2052
 33721 OH2          9.4820    10.0140   -27.3370 O.3    4937  TIP4787    -0.4105
 33722 H1           9.0400     9.8030   -28.1600 H      4937  TIP4787     0.2052
 33723 H2           8.7770    10.0590   -26.6910 H      4937  TIP4787     0.2052
 33724 OH2         16.8810    30.9350    48.9540 O.3    4938  TIP4788    -0.4105
 33725 H1          17.5660    30.3690    49.3100 H      4938  TIP4788     0.2052
 33726 H2          16.6140    31.4820    49.6930 H      4938  TIP4788     0.2052
 33727 OH2          8.0230     8.7400   -42.1680 O.3    4939  TIP4789    -0.4105
 33728 H1           8.2750     7.9020   -41.7810 H      4939  TIP4789     0.2052
 33729 H2           8.7110     9.3470   -41.8970 H      4939  TIP4789     0.2052
 33730 OH2        -23.7610    15.1250    50.4480 O.3    4940  TIP4790    -0.4105
 33731 H1         -23.5440    16.0560    50.4010 H      4940  TIP4790     0.2052
 33732 H2         -23.1630    14.7070    49.8290 H      4940  TIP4790     0.2052
 33733 OH2         20.9530    -1.2920   -30.5130 O.3    4941  TIP4791    -0.4105
 33734 H1          21.4030    -0.4470   -30.4980 H      4941  TIP4791     0.2052
 33735 H2          21.3540    -1.7650   -31.2420 H      4941  TIP4791     0.2052
 33736 OH2          6.2920    25.1050    45.8700 O.3    4942  TIP4792    -0.4105
 33737 H1           6.8720    25.5300    46.5020 H      4942  TIP4792     0.2052
 33738 H2           6.4440    24.1690    45.9960 H      4942  TIP4792     0.2052
 33739 OH2         25.1380   -11.8580   -28.2880 O.3    4943  TIP4793    -0.4105
 33740 H1          24.4540   -11.9290   -28.9540 H      4943  TIP4793     0.2052
 33741 H2          25.6030   -11.0510   -28.5060 H      4943  TIP4793     0.2052
 33742 OH2         10.6100    30.1110   -55.4260 O.3    4944  TIP4794    -0.4105
 33743 H1          10.6370    30.0070   -54.4750 H      4944  TIP4794     0.2052
 33744 H2          10.7730    31.0430   -55.5700 H      4944  TIP4794     0.2052
 33745 OH2        -27.1390   -26.5680   -24.9900 O.3    4945  TIP4795    -0.4105
 33746 H1         -26.7150   -27.3970   -24.7700 H      4945  TIP4795     0.2052
 33747 H2         -26.6330   -25.9060   -24.5190 H      4945  TIP4795     0.2052
 33748 OH2        -25.2590    16.3350    54.8700 O.3    4946  TIP4796    -0.4105
 33749 H1         -24.7960    15.6420    54.3980 H      4946  TIP4796     0.2052
 33750 H2         -26.0380    16.5070    54.3400 H      4946  TIP4796     0.2052
 33751 OH2        -27.8600     7.2230    28.2030 O.3    4947  TIP4797    -0.4105
 33752 H1         -27.9990     8.0540    28.6570 H      4947  TIP4797     0.2052
 33753 H2         -28.6760     7.0680    27.7280 H      4947  TIP4797     0.2052
 33754 OH2          5.3840    -6.5450   -46.0430 O.3    4948  TIP4798    -0.4105
 33755 H1           5.6750    -5.7040   -46.3970 H      4948  TIP4798     0.2052
 33756 H2           4.7700    -6.8810   -46.6960 H      4948  TIP4798     0.2052
 33757 OH2        -25.9620   -16.1970   -30.5320 O.3    4949  TIP4799    -0.4105
 33758 H1         -26.7170   -16.4670   -31.0550 H      4949  TIP4799     0.2052
 33759 H2         -26.1310   -15.2790   -30.3230 H      4949  TIP4799     0.2052
 33760 OH2        -16.8290    12.5710    48.5310 O.3    4950  TIP4800    -0.4105
 33761 H1         -16.1120    12.0870    48.1200 H      4950  TIP4800     0.2052
 33762 H2         -17.1900    11.9640    49.1770 H      4950  TIP4800     0.2052
 33763 OH2         29.5060    -8.2100    37.0200 O.3    4951  TIP4801    -0.4105
 33764 H1          29.8660    -7.6010    36.3750 H      4951  TIP4801     0.2052
 33765 H2          30.2580    -8.4670    37.5530 H      4951  TIP4801     0.2052
 33766 OH2         13.2320    15.2590   -51.3830 O.3    4952  TIP4802    -0.4105
 33767 H1          12.6630    14.9170   -50.6930 H      4952  TIP4802     0.2052
 33768 H2          14.0990    14.9120   -51.1720 H      4952  TIP4802     0.2052
 33769 OH2         -8.3360    -9.7160    50.8200 O.3    4953  TIP4803    -0.4105
 33770 H1          -8.5000   -10.1270    51.6680 H      4953  TIP4803     0.2052
 33771 H2          -9.1160    -9.1880    50.6540 H      4953  TIP4803     0.2052
 33772 OH2         -2.5030    24.8160    22.4830 O.3    4954  TIP4804    -0.4105
 33773 H1          -2.2610    24.3200    21.7010 H      4954  TIP4804     0.2052
 33774 H2          -2.8790    25.6280    22.1450 H      4954  TIP4804     0.2052
 33775 OH2        -30.4700    21.0410   -40.5710 O.3    4955  TIP4805    -0.4105
 33776 H1         -30.2240    20.1190   -40.6450 H      4955  TIP4805     0.2052
 33777 H2         -29.6400    21.5160   -40.6230 H      4955  TIP4805     0.2052
 33778 OH2        -15.0820    15.4060   -43.4130 O.3    4956  TIP4806    -0.4105
 33779 H1         -14.8210    14.4920   -43.5290 H      4956  TIP4806     0.2052
 33780 H2         -15.6820    15.5770   -44.1400 H      4956  TIP4806     0.2052
 33781 OH2         19.3510   -15.8820   -26.5950 O.3    4957  TIP4807    -0.4105
 33782 H1          19.0890   -15.5920   -25.7210 H      4957  TIP4807     0.2052
 33783 H2          18.6000   -15.6760   -27.1510 H      4957  TIP4807     0.2052
 33784 OH2         -3.4290   -10.7560    50.5410 O.3    4958  TIP4808    -0.4105
 33785 H1          -3.3110   -10.9460    49.6100 H      4958  TIP4808     0.2052
 33786 H2          -2.5430   -10.6000    50.8670 H      4958  TIP4808     0.2052
 33787 OH2         29.2830    -4.6970    48.6160 O.3    4959  TIP4809    -0.4105
 33788 H1          28.3410    -4.8680    48.6290 H      4959  TIP4809     0.2052
 33789 H2          29.6790    -5.5510    48.4440 H      4959  TIP4809     0.2052
 33790 OH2        -30.5690     2.8590    39.8860 O.3    4960  TIP4810    -0.4105
 33791 H1         -30.2400     2.3690    39.1320 H      4960  TIP4810     0.2052
 33792 H2         -31.5070     2.6700    39.9040 H      4960  TIP4810     0.2052
 33793 OH2         -5.9900     2.5350    30.0740 O.3    4961  TIP4811    -0.4105
 33794 H1          -5.3740     2.2250    29.4100 H      4961  TIP4811     0.2052
 33795 H2          -5.5950     3.3400    30.4100 H      4961  TIP4811     0.2052
 33796 OH2         -1.8270    14.3050    36.6900 O.3    4962  TIP4812    -0.4105
 33797 H1          -1.0900    13.8460    37.0940 H      4962  TIP4812     0.2052
 33798 H2          -1.4320    14.8220    35.9880 H      4962  TIP4812     0.2052
 33799 OH2          0.2870    -8.1600   -23.2240 O.3    4963  TIP4813    -0.4105
 33800 H1          -0.5850    -8.5330   -23.0950 H      4963  TIP4813     0.2052
 33801 H2           0.3160    -7.4060   -22.6340 H      4963  TIP4813     0.2052
 33802 OH2          0.7890   -31.6220    25.1030 O.3    4964  TIP4814    -0.4105
 33803 H1           0.8210   -31.8340    26.0360 H      4964  TIP4814     0.2052
 33804 H2           1.5220   -31.0220    24.9680 H      4964  TIP4814     0.2052
 33805 OH2         -1.6630    -9.0240   -53.1260 O.3    4965  TIP4815    -0.4105
 33806 H1          -0.8350    -8.7840   -53.5420 H      4965  TIP4815     0.2052
 33807 H2          -2.2810    -9.1060   -53.8530 H      4965  TIP4815     0.2052
 33808 OH2         27.3240    22.6800   -30.0790 O.3    4966  TIP4816    -0.4105
 33809 H1          27.4230    22.0920   -30.8280 H      4966  TIP4816     0.2052
 33810 H2          28.0970    22.5120   -29.5390 H      4966  TIP4816     0.2052
 33811 OH2         -6.4920    20.5830   -25.1430 O.3    4967  TIP4817    -0.4105
 33812 H1          -7.0910    21.2410   -24.7880 H      4967  TIP4817     0.2052
 33813 H2          -7.0610    19.9590   -25.5930 H      4967  TIP4817     0.2052
 33814 OH2         -5.5770   -25.2510    44.1780 O.3    4968  TIP4818    -0.4105
 33815 H1          -6.2050   -25.1260    44.8900 H      4968  TIP4818     0.2052
 33816 H2          -5.1560   -26.0880    44.3740 H      4968  TIP4818     0.2052
 33817 OH2         31.6860    18.0400    20.3750 O.3    4969  TIP4819    -0.4105
 33818 H1          32.0150    17.3120    20.9030 H      4969  TIP4819     0.2052
 33819 H2          30.9010    17.6940    19.9520 H      4969  TIP4819     0.2052
 33820 OH2         -7.2530     0.0490    27.6080 O.3    4970  TIP4820    -0.4105
 33821 H1          -6.3380    -0.1470    27.8080 H      4970  TIP4820     0.2052
 33822 H2          -7.2410     0.3540    26.7010 H      4970  TIP4820     0.2052
 33823 OH2        -19.8180    18.2590   -43.6790 O.3    4971  TIP4821    -0.4105
 33824 H1         -20.4660    18.9630   -43.6480 H      4971  TIP4821     0.2052
 33825 H2         -19.7360    18.0500   -44.6100 H      4971  TIP4821     0.2052
 33826 OH2         -0.6360     1.8480   -19.7130 O.3    4972  TIP4822    -0.4105
 33827 H1          -0.0430     1.5080   -20.3830 H      4972  TIP4822     0.2052
 33828 H2          -0.2450     1.5750   -18.8840 H      4972  TIP4822     0.2052
 33829 OH2         25.8060    -8.8710    54.1120 O.3    4973  TIP4823    -0.4105
 33830 H1          25.5030    -9.7260    54.4170 H      4973  TIP4823     0.2052
 33831 H2          25.0030    -8.3830    53.9290 H      4973  TIP4823     0.2052
 33832 OH2        -23.9840    31.0420    50.0330 O.3    4974  TIP4824    -0.4105
 33833 H1         -24.0110    31.1900    50.9780 H      4974  TIP4824     0.2052
 33834 H2         -24.8990    31.0890    49.7560 H      4974  TIP4824     0.2052
 33835 OH2         -2.7200    19.7600    50.7370 O.3    4975  TIP4825    -0.4105
 33836 H1          -2.1470    19.1170    51.1540 H      4975  TIP4825     0.2052
 33837 H2          -3.4180    19.9090    51.3750 H      4975  TIP4825     0.2052
 33838 OH2         -3.8850    31.1980    47.3570 O.3    4976  TIP4826    -0.4105
 33839 H1          -3.2870    30.5250    47.6800 H      4976  TIP4826     0.2052
 33840 H2          -4.7550    30.8870    47.6070 H      4976  TIP4826     0.2052
 33841 OH2        -26.0610    15.7660   -51.5300 O.3    4977  TIP4827    -0.4105
 33842 H1         -25.3170    16.2320   -51.9140 H      4977  TIP4827     0.2052
 33843 H2         -26.3590    15.1780   -52.2240 H      4977  TIP4827     0.2052
 33844 OH2        -26.2170   -10.7660    25.8870 O.3    4978  TIP4828    -0.4105
 33845 H1         -26.8940   -11.4410    25.8830 H      4978  TIP4828     0.2052
 33846 H2         -25.6770   -10.9720    26.6500 H      4978  TIP4828     0.2052
 33847 OH2        -14.7850    11.3810    17.6410 O.3    4979  TIP4829    -0.4105
 33848 H1         -14.3060    11.2390    16.8240 H      4979  TIP4829     0.2052
 33849 H2         -14.1020    11.5100    18.3000 H      4979  TIP4829     0.2052
 33850 OH2        -20.7080   -25.7870    22.6150 O.3    4980  TIP4830    -0.4105
 33851 H1         -20.5000   -25.1750    23.3200 H      4980  TIP4830     0.2052
 33852 H2         -21.5880   -26.1020    22.8220 H      4980  TIP4830     0.2052
 33853 OH2         29.3890   -15.2860    23.0030 O.3    4981  TIP4831    -0.4105
 33854 H1          29.9350   -14.5830    23.3550 H      4981  TIP4831     0.2052
 33855 H2          30.0110   -15.9680    22.7500 H      4981  TIP4831     0.2052
 33856 OH2         14.8760    13.9980    53.7150 O.3    4982  TIP4832    -0.4105
 33857 H1          15.0520    14.8770    54.0490 H      4982  TIP4832     0.2052
 33858 H2          14.1950    14.1240    53.0540 H      4982  TIP4832     0.2052
 33859 OH2          7.8350    11.0580    36.5210 O.3    4983  TIP4833    -0.4105
 33860 H1           8.1460    10.1580    36.6220 H      4983  TIP4833     0.2052
 33861 H2           7.0380    11.0980    37.0490 H      4983  TIP4833     0.2052
 33862 OH2        -20.6530   -31.8230    26.8570 O.3    4984  TIP4834    -0.4105
 33863 H1         -21.1150   -31.7860    27.6940 H      4984  TIP4834     0.2052
 33864 H2         -19.8790   -32.3570    27.0330 H      4984  TIP4834     0.2052
 33865 OH2         25.7530   -19.0610   -39.2820 O.3    4985  TIP4835    -0.4105
 33866 H1          26.1090   -18.3230   -39.7770 H      4985  TIP4835     0.2052
 33867 H2          25.6770   -18.7330   -38.3850 H      4985  TIP4835     0.2052
 33868 OH2         22.0230     1.9520    24.7990 O.3    4986  TIP4836    -0.4105
 33869 H1          21.4560     2.0270    24.0320 H      4986  TIP4836     0.2052
 33870 H2          21.8770     1.0610    25.1190 H      4986  TIP4836     0.2052
 33871 OH2         11.7150   -29.4310    37.3420 O.3    4987  TIP4837    -0.4105
 33872 H1          12.0960   -30.2450    37.0130 H      4987  TIP4837     0.2052
 33873 H2          10.8060   -29.6530    37.5390 H      4987  TIP4837     0.2052
 33874 OH2         31.0280    27.5330    54.7350 O.3    4988  TIP4838    -0.4105
 33875 H1          30.1010    27.7020    54.5670 H      4988  TIP4838     0.2052
 33876 H2          31.0440    26.6680    55.1450 H      4988  TIP4838     0.2052
 33877 OH2         17.6960    22.1940   -42.1390 O.3    4989  TIP4839    -0.4105
 33878 H1          16.8420    22.6260   -42.1120 H      4989  TIP4839     0.2052
 33879 H2          17.7920    21.9090   -43.0480 H      4989  TIP4839     0.2052
 33880 OH2         -2.9260   -16.3870   -17.3780 O.3    4990  TIP4840    -0.4105
 33881 H1          -2.6450   -15.9980   -16.5500 H      4990  TIP4840     0.2052
 33882 H2          -3.7530   -15.9500   -17.5790 H      4990  TIP4840     0.2052
 33883 OH2         17.2410   -20.0300   -39.1730 O.3    4991  TIP4841    -0.4105
 33884 H1          17.0960   -20.5500   -39.9640 H      4991  TIP4841     0.2052
 33885 H2          16.3610   -19.8110   -38.8660 H      4991  TIP4841     0.2052
 33886 OH2          4.3690    30.1870    42.5300 O.3    4992  TIP4842    -0.4105
 33887 H1           4.4410    29.2400    42.4100 H      4992  TIP4842     0.2052
 33888 H2           3.5170    30.3120    42.9480 H      4992  TIP4842     0.2052
 33889 OH2        -26.6440     5.3030    54.5900 O.3    4993  TIP4843    -0.4105
 33890 H1         -26.3170     4.4130    54.4590 H      4993  TIP4843     0.2052
 33891 H2         -26.0910     5.6620    55.2850 H      4993  TIP4843     0.2052
 33892 OH2          7.4840    -4.7120    30.5940 O.3    4994  TIP4844    -0.4105
 33893 H1           7.2780    -5.5880    30.2670 H      4994  TIP4844     0.2052
 33894 H2           7.1300    -4.6990    31.4840 H      4994  TIP4844     0.2052
 33895 OH2        -24.8530     7.4930    55.5150 O.3    4995  TIP4845    -0.4105
 33896 H1         -25.7060     7.8620    55.2870 H      4995  TIP4845     0.2052
 33897 H2         -24.8920     7.3690    56.4640 H      4995  TIP4845     0.2052
 33898 OH2        -21.8810     6.7570    41.9430 O.3    4996  TIP4846    -0.4105
 33899 H1         -21.7050     7.6980    41.9570 H      4996  TIP4846     0.2052
 33900 H2         -21.1690     6.3730    42.4540 H      4996  TIP4846     0.2052
 33901 OH2        -32.8370     7.5620    34.5110 O.3    4997  TIP4847    -0.4105
 33902 H1         -33.4090     8.3290    34.4970 H      4997  TIP4847     0.2052
 33903 H2         -32.0320     7.8690    34.9280 H      4997  TIP4847     0.2052
 33904 OH2          9.0380    -3.2720   -51.7010 O.3    4998  TIP4848    -0.4105
 33905 H1           8.7210    -2.5550   -51.1530 H      4998  TIP4848     0.2052
 33906 H2           9.9590    -3.3700   -51.4590 H      4998  TIP4848     0.2052
 33907 OH2          4.1840   -30.0780   -41.7110 O.3    4999  TIP4849    -0.4105
 33908 H1           4.3190   -30.9390   -41.3130 H      4999  TIP4849     0.2052
 33909 H2           4.3750   -30.2100   -42.6390 H      4999  TIP4849     0.2052
 33910 OH2         21.2610    -9.5860   -28.4150 O.3    5000  TIP4850    -0.4105
 33911 H1          21.8090   -10.2070   -28.8940 H      5000  TIP4850     0.2052
 33912 H2          20.4060   -10.0120   -28.3590 H      5000  TIP4850     0.2052
 33913 OH2         18.6380     4.6890   -23.9950 O.3    5001  TIP4851    -0.4105
 33914 H1          18.5930     4.3660   -23.0950 H      5001  TIP4851     0.2052
 33915 H2          19.2730     5.4040   -23.9610 H      5001  TIP4851     0.2052
 33916 OH2        -19.0470    26.0380   -35.4080 O.3    5002  TIP4852    -0.4105
 33917 H1         -19.1450    26.9900   -35.4250 H      5002  TIP4852     0.2052
 33918 H2         -19.8920    25.7160   -35.0930 H      5002  TIP4852     0.2052
 33919 OH2         25.0940   -28.2460    24.5080 O.3    5003  TIP4853    -0.4105
 33920 H1          24.8100   -28.7300    23.7330 H      5003  TIP4853     0.2052
 33921 H2          26.0240   -28.4560    24.5950 H      5003  TIP4853     0.2052
 33922 OH2         25.0310    -9.4210   -50.6610 O.3    5004  TIP4854    -0.4105
 33923 H1          25.8830    -9.0480   -50.4360 H      5004  TIP4854     0.2052
 33924 H2          24.6960    -8.8540   -51.3550 H      5004  TIP4854     0.2052
 33925 OH2         28.9250    -5.5860   -24.1750 O.3    5005  TIP4855    -0.4105
 33926 H1          28.2930    -6.0010   -23.5870 H      5005  TIP4855     0.2052
 33927 H2          28.7120    -4.6530   -24.1360 H      5005  TIP4855     0.2052
 33928 OH2         -6.8460   -11.0980   -53.0390 O.3    5006  TIP4856    -0.4105
 33929 H1          -6.8560   -11.2730   -52.0980 H      5006  TIP4856     0.2052
 33930 H2          -5.9900   -10.7040   -53.2020 H      5006  TIP4856     0.2052
 33931 OH2         11.7560    -3.4980   -31.3840 O.3    5007  TIP4857    -0.4105
 33932 H1          11.6670    -4.2590   -30.8090 H      5007  TIP4857     0.2052
 33933 H2          10.8760    -3.1250   -31.4260 H      5007  TIP4857     0.2052
 33934 OH2        -20.2610   -32.0190    47.5400 O.3    5008  TIP4858    -0.4105
 33935 H1         -19.3140   -31.8880    47.5960 H      5008  TIP4858     0.2052
 33936 H2         -20.4240   -32.8130    48.0500 H      5008  TIP4858     0.2052
 33937 OH2         21.0550   -25.6650   -50.7430 O.3    5009  TIP4859    -0.4105
 33938 H1          20.4060   -24.9820   -50.9140 H      5009  TIP4859     0.2052
 33939 H2          21.8480   -25.3570   -51.1810 H      5009  TIP4859     0.2052
 33940 OH2         -4.4210    -0.4540   -36.6030 O.3    5010  TIP4860    -0.4105
 33941 H1          -4.9840     0.1700   -36.1450 H      5010  TIP4860     0.2052
 33942 H2          -4.4190    -0.1550   -37.5120 H      5010  TIP4860     0.2052
 33943 OH2         -6.2060   -13.1160   -27.7620 O.3    5011  TIP4861    -0.4105
 33944 H1          -6.0920   -12.8660   -28.6790 H      5011  TIP4861     0.2052
 33945 H2          -5.8040   -12.4030   -27.2670 H      5011  TIP4861     0.2052
 33946 OH2        -31.3110   -14.0340   -32.0150 O.3    5012  TIP4862    -0.4105
 33947 H1         -31.1390   -13.8890   -31.0840 H      5012  TIP4862     0.2052
 33948 H2         -32.2400   -13.8280   -32.1220 H      5012  TIP4862     0.2052
 33949 OH2        -26.6730   -24.8940   -21.1360 O.3    5013  TIP4863    -0.4105
 33950 H1         -27.4170   -25.4850   -21.0240 H      5013  TIP4863     0.2052
 33951 H2         -27.0030   -24.0380   -20.8620 H      5013  TIP4863     0.2052
 33952 OH2         21.7500   -13.8690   -22.7940 O.3    5014  TIP4864    -0.4105
 33953 H1          21.8570   -12.9250   -22.6760 H      5014  TIP4864     0.2052
 33954 H2          22.4260   -14.1100   -23.4280 H      5014  TIP4864     0.2052
 33955 OH2         -4.6200   -28.3460   -29.1700 O.3    5015  TIP4865    -0.4105
 33956 H1          -5.2750   -27.7750   -28.7670 H      5015  TIP4865     0.2052
 33957 H2          -3.8700   -27.7740   -29.3320 H      5015  TIP4865     0.2052
 33958 OH2         29.6610    23.3870   -34.7980 O.3    5016  TIP4866    -0.4105
 33959 H1          29.3550    22.7290   -35.4220 H      5016  TIP4866     0.2052
 33960 H2          29.5200    24.2230   -35.2420 H      5016  TIP4866     0.2052
 33961 OH2          5.7590    14.2460    41.3890 O.3    5017  TIP4867    -0.4105
 33962 H1           5.1150    13.5730    41.6090 H      5017  TIP4867     0.2052
 33963 H2           6.6040    13.8020    41.4570 H      5017  TIP4867     0.2052
 33964 OH2        -17.1280   -28.6020    48.8620 O.3    5018  TIP4868    -0.4105
 33965 H1         -16.9210   -28.3250    47.9690 H      5018  TIP4868     0.2052
 33966 H2         -16.3380   -28.4010    49.3640 H      5018  TIP4868     0.2052
 33967 OH2         10.4020    -1.1740   -47.4500 O.3    5019  TIP4869    -0.4105
 33968 H1          10.1630    -1.0870   -46.5270 H      5019  TIP4869     0.2052
 33969 H2          10.0400    -0.3910   -47.8660 H      5019  TIP4869     0.2052
 33970 OH2         16.3380   -19.5310    35.5410 O.3    5020  TIP4870    -0.4105
 33971 H1          16.0280   -19.7390    34.6590 H      5020  TIP4870     0.2052
 33972 H2          17.2630   -19.3160    35.4250 H      5020  TIP4870     0.2052
 33973 OH2         20.0690   -12.4410   -25.0490 O.3    5021  TIP4871    -0.4105
 33974 H1          19.8360   -12.1040   -25.9140 H      5021  TIP4871     0.2052
 33975 H2          20.9570   -12.7840   -25.1550 H      5021  TIP4871     0.2052
 33976 OH2         15.2180    24.8560   -36.4930 O.3    5022  TIP4872    -0.4105
 33977 H1          15.8070    24.2600   -36.9550 H      5022  TIP4872     0.2052
 33978 H2          15.3360    25.6980   -36.9320 H      5022  TIP4872     0.2052
 33979 OH2         -5.7250     1.2990   -44.8720 O.3    5023  TIP4873    -0.4105
 33980 H1          -6.6320     1.0150   -44.7560 H      5023  TIP4873     0.2052
 33981 H2          -5.2490     0.4970   -45.0890 H      5023  TIP4873     0.2052
 33982 OH2        -14.2690    27.7620    32.6330 O.3    5024  TIP4874    -0.4105
 33983 H1         -14.4260    28.0450    31.7320 H      5024  TIP4874     0.2052
 33984 H2         -15.1100    27.4110    32.9250 H      5024  TIP4874     0.2052
 33985 OH2         21.7740    13.6930   -38.6230 O.3    5025  TIP4875    -0.4105
 33986 H1          20.8990    13.8390   -38.2630 H      5025  TIP4875     0.2052
 33987 H2          21.8790    14.3780   -39.2830 H      5025  TIP4875     0.2052
 33988 OH2          0.6050    27.6280   -43.2780 O.3    5026  TIP4876    -0.4105
 33989 H1           1.4910    27.7020   -43.6320 H      5026  TIP4876     0.2052
 33990 H2           0.3880    28.5140   -42.9870 H      5026  TIP4876     0.2052
 33991 OH2         27.9130    23.1040    46.9210 O.3    5027  TIP4877    -0.4105
 33992 H1          28.0270    23.2650    47.8580 H      5027  TIP4877     0.2052
 33993 H2          28.1420    23.9350    46.5050 H      5027  TIP4877     0.2052
 33994 OH2         10.0890    10.3370   -41.1370 O.3    5028  TIP4878    -0.4105
 33995 H1          10.3910    10.2410   -40.2340 H      5028  TIP4878     0.2052
 33996 H2          10.7660    10.8630   -41.5620 H      5028  TIP4878     0.2052
 33997 OH2         11.3310    -1.2750   -52.9600 O.3    5029  TIP4879    -0.4105
 33998 H1          11.1830    -2.1340   -53.3550 H      5029  TIP4879     0.2052
 33999 H2          12.1270    -1.3830   -52.4400 H      5029  TIP4879     0.2052
 34000 OH2         10.2210    24.2660    41.8960 O.3    5030  TIP4880    -0.4105
 34001 H1           9.9920    24.3030    40.9670 H      5030  TIP4880     0.2052
 34002 H2          11.1640    24.4290    41.9180 H      5030  TIP4880     0.2052
 34003 OH2        -24.6200     8.4880    35.4060 O.3    5031  TIP4881    -0.4105
 34004 H1         -24.9880     8.1360    36.2170 H      5031  TIP4881     0.2052
 34005 H2         -23.6840     8.2930    35.4630 H      5031  TIP4881     0.2052
 34006 OH2        -27.4660    13.5070   -47.4990 O.3    5032  TIP4882    -0.4105
 34007 H1         -27.7520    12.6690   -47.1350 H      5032  TIP4882     0.2052
 34008 H2         -26.5110    13.4790   -47.4430 H      5032  TIP4882     0.2052
 34009 OH2         15.9460   -19.2220   -31.3780 O.3    5033  TIP4883    -0.4105
 34010 H1          15.4460   -18.9290   -32.1400 H      5033  TIP4883     0.2052
 34011 H2          16.7040   -19.6740   -31.7470 H      5033  TIP4883     0.2052
 34012 OH2          5.4580    28.4470   -42.3570 O.3    5034  TIP4884    -0.4105
 34013 H1           4.7400    29.0730   -42.4510 H      5034  TIP4884     0.2052
 34014 H2           6.0470    28.6460   -43.0850 H      5034  TIP4884     0.2052
 34015 OH2         -0.7420    19.9870   -37.6490 O.3    5035  TIP4885    -0.4105
 34016 H1          -1.3690    20.1450   -38.3550 H      5035  TIP4885     0.2052
 34017 H2          -1.2690    19.6210   -36.9380 H      5035  TIP4885     0.2052
 34018 OH2         -5.0930    17.7280   -38.8730 O.3    5036  TIP4886    -0.4105
 34019 H1          -4.6740    18.0520   -39.6700 H      5036  TIP4886     0.2052
 34020 H2          -6.0070    17.9990   -38.9560 H      5036  TIP4886     0.2052
 34021 OH2        -17.0550    29.1580   -40.7100 O.3    5037  TIP4887    -0.4105
 34022 H1         -17.4260    30.0350   -40.8090 H      5037  TIP4887     0.2052
 34023 H2         -16.6590    28.9680   -41.5610 H      5037  TIP4887     0.2052
 34024 OH2        -16.2620     1.4440   -39.0880 O.3    5038  TIP4888    -0.4105
 34025 H1         -16.0970     2.2240   -38.5580 H      5038  TIP4888     0.2052
 34026 H2         -16.2750     1.7650   -39.9900 H      5038  TIP4888     0.2052
 34027 OH2         12.3190    27.9070   -30.3430 O.3    5039  TIP4889    -0.4105
 34028 H1          12.6030    28.6160   -29.7670 H      5039  TIP4889     0.2052
 34029 H2          13.0130    27.8380   -30.9990 H      5039  TIP4889     0.2052
 34030 OH2        -20.8680   -28.7180   -35.2100 O.3    5040  TIP4890    -0.4105
 34031 H1         -20.5990   -28.7360   -34.2910 H      5040  TIP4890     0.2052
 34032 H2         -21.7280   -28.2990   -35.2000 H      5040  TIP4890     0.2052
 34033 OH2         19.8460   -26.8670    48.4930 O.3    5041  TIP4891    -0.4105
 34034 H1          20.7690   -26.7280    48.7060 H      5041  TIP4891     0.2052
 34035 H2          19.4840   -25.9850    48.4090 H      5041  TIP4891     0.2052
 34036 OH2         18.1080    29.8850    51.4560 O.3    5042  TIP4892    -0.4105
 34037 H1          18.1310    29.7500    52.4030 H      5042  TIP4892     0.2052
 34038 H2          18.2540    30.8240    51.3440 H      5042  TIP4892     0.2052
 34039 OH2        -26.0780   -14.6160    42.2320 O.3    5043  TIP4893    -0.4105
 34040 H1         -25.8080   -13.8010    41.8090 H      5043  TIP4893     0.2052
 34041 H2         -25.2860   -15.1530    42.2460 H      5043  TIP4893     0.2052
 34042 OH2         30.5120    23.9010   -44.6430 O.3    5044  TIP4894    -0.4105
 34043 H1          29.6370    24.0890   -44.9810 H      5044  TIP4894     0.2052
 34044 H2          30.7410    23.0550   -45.0290 H      5044  TIP4894     0.2052
 34045 OH2        -11.1770   -14.3810   -53.2510 O.3    5045  TIP4895    -0.4105
 34046 H1         -10.8550   -14.5350   -54.1400 H      5045  TIP4895     0.2052
 34047 H2         -12.1260   -14.3050   -53.3500 H      5045  TIP4895     0.2052
 34048 OH2         24.9170   -31.6680   -30.6700 O.3    5046  TIP4896    -0.4105
 34049 H1          24.7650   -31.7990   -29.7340 H      5046  TIP4896     0.2052
 34050 H2          25.8320   -31.9130   -30.8010 H      5046  TIP4896     0.2052
 34051 OH2         13.4370   -12.7180    30.8590 O.3    5047  TIP4897    -0.4105
 34052 H1          13.3740   -11.7640    30.8950 H      5047  TIP4897     0.2052
 34053 H2          14.3180   -12.8880    30.5240 H      5047  TIP4897     0.2052
 34054 OH2        -28.7360   -23.7990    44.3650 O.3    5048  TIP4898    -0.4105
 34055 H1         -27.9130   -23.7320    44.8490 H      5048  TIP4898     0.2052
 34056 H2         -28.6280   -23.2040    43.6230 H      5048  TIP4898     0.2052
 34057 OH2         -6.3490   -12.5680   -47.9720 O.3    5049  TIP4899    -0.4105
 34058 H1          -6.1740   -11.6630   -48.2300 H      5049  TIP4899     0.2052
 34059 H2          -6.8260   -12.9400   -48.7140 H      5049  TIP4899     0.2052
 34060 OH2         14.2170    -5.3710   -39.4310 O.3    5050  TIP4900    -0.4105
 34061 H1          13.7390    -4.6030   -39.1170 H      5050  TIP4900     0.2052
 34062 H2          15.1280    -5.0810   -39.4840 H      5050  TIP4900     0.2052
 34063 OH2         17.2240   -10.0880    33.8620 O.3    5051  TIP4901    -0.4105
 34064 H1          16.7860    -9.8170    33.0560 H      5051  TIP4901     0.2052
 34065 H2          16.6850    -9.7210    34.5630 H      5051  TIP4901     0.2052
 34066 OH2        -14.7340    25.6220    19.4710 O.3    5052  TIP4902    -0.4105
 34067 H1         -13.9920    26.0340    19.0290 H      5052  TIP4902     0.2052
 34068 H2         -15.2850    25.2940    18.7600 H      5052  TIP4902     0.2052
 34069 OH2         10.9830   -20.9970   -45.4750 O.3    5053  TIP4903    -0.4105
 34070 H1          11.0090   -21.3160   -46.3780 H      5053  TIP4903     0.2052
 34071 H2          10.5620   -21.7020   -44.9840 H      5053  TIP4903     0.2052
 34072 OH2        -12.1540   -19.4610    23.0370 O.3    5054  TIP4904    -0.4105
 34073 H1         -11.5140   -20.0090    23.4930 H      5054  TIP4904     0.2052
 34074 H2         -11.7230   -18.6100    22.9530 H      5054  TIP4904     0.2052
 34075 OH2         14.0960    -7.2790    24.9180 O.3    5055  TIP4905    -0.4105
 34076 H1          14.1380    -7.8180    25.7080 H      5055  TIP4905     0.2052
 34077 H2          15.0110    -7.1000    24.7030 H      5055  TIP4905     0.2052
 34078 OH2        -26.7270    10.9980   -49.5490 O.3    5056  TIP4906    -0.4105
 34079 H1         -26.9490    10.8900   -48.6240 H      5056  TIP4906     0.2052
 34080 H2         -27.1550    11.8160   -49.8040 H      5056  TIP4906     0.2052
 34081 OH2         17.9110    29.6650   -40.1750 O.3    5057  TIP4907    -0.4105
 34082 H1          17.6120    30.3950   -40.7160 H      5057  TIP4907     0.2052
 34083 H2          18.7030    29.3500   -40.6120 H      5057  TIP4907     0.2052
 34084 OH2          7.6860    16.7430   -34.1260 O.3    5058  TIP4908    -0.4105
 34085 H1           6.8940    16.4680   -34.5870 H      5058  TIP4908     0.2052
 34086 H2           7.7620    16.1310   -33.3940 H      5058  TIP4908     0.2052
 34087 OH2        -19.7670     6.6130   -44.7740 O.3    5059  TIP4909    -0.4105
 34088 H1         -18.8250     6.4840   -44.8840 H      5059  TIP4909     0.2052
 34089 H2         -19.8600     7.5430   -44.5690 H      5059  TIP4909     0.2052
 34090 OH2         32.2540    27.3400    44.2260 O.3    5060  TIP4910    -0.4105
 34091 H1          31.7400    26.5350    44.2820 H      5060  TIP4910     0.2052
 34092 H2          32.5260    27.3880    43.3100 H      5060  TIP4910     0.2052
 34093 OH2         -5.1070   -19.3740   -45.7780 O.3    5061  TIP4911    -0.4105
 34094 H1          -5.2720   -18.9260   -44.9480 H      5061  TIP4911     0.2052
 34095 H2          -5.5680   -18.8470   -46.4310 H      5061  TIP4911     0.2052
 34096 OH2         19.7230   -25.0270   -44.0890 O.3    5062  TIP4912    -0.4105
 34097 H1          20.4730   -25.1990   -44.6590 H      5062  TIP4912     0.2052
 34098 H2          19.1200   -24.5200   -44.6330 H      5062  TIP4912     0.2052
 34099 OH2        -17.4550    12.0710    52.9890 O.3    5063  TIP4913    -0.4105
 34100 H1         -16.7260    11.9180    53.5900 H      5063  TIP4913     0.2052
 34101 H2         -17.9820    11.2740    53.0420 H      5063  TIP4913     0.2052
 34102 OH2        -12.8700    18.2900   -47.2340 O.3    5064  TIP4914    -0.4105
 34103 H1         -13.8230    18.2120   -47.2840 H      5064  TIP4914     0.2052
 34104 H2         -12.6330    17.8200   -46.4350 H      5064  TIP4914     0.2052
 34105 OH2         -6.2500   -11.1130    37.5130 O.3    5065  TIP4915    -0.4105
 34106 H1          -5.8690   -10.4080    38.0360 H      5065  TIP4915     0.2052
 34107 H2          -6.4440   -11.8040    38.1460 H      5065  TIP4915     0.2052
 34108 OH2         21.8430    -3.7710   -25.4260 O.3    5066  TIP4916    -0.4105
 34109 H1          21.2050    -3.2540   -24.9340 H      5066  TIP4916     0.2052
 34110 H2          21.9590    -3.2920   -26.2460 H      5066  TIP4916     0.2052
 34111 OH2        -19.2850    24.0000   -53.2960 O.3    5067  TIP4917    -0.4105
 34112 H1         -19.1900    24.6650   -52.6140 H      5067  TIP4917     0.2052
 34113 H2         -18.5100    24.1080   -53.8470 H      5067  TIP4917     0.2052
 34114 OH2         31.4560    32.6100    33.5410 O.3    5068  TIP4918    -0.4105
 34115 H1          30.6580    32.6950    33.0190 H      5068  TIP4918     0.2052
 34116 H2          31.4970    31.6810    33.7670 H      5068  TIP4918     0.2052
 34117 OH2         -1.7170   -20.2330   -38.5270 O.3    5069  TIP4919    -0.4105
 34118 H1          -1.4140   -19.9700   -37.6580 H      5069  TIP4919     0.2052
 34119 H2          -2.6470   -20.0080   -38.5350 H      5069  TIP4919     0.2052
 34120 OH2          3.1150    -9.0300   -19.4780 O.3    5070  TIP4920    -0.4105
 34121 H1           3.2850    -8.2050   -19.0230 H      5070  TIP4920     0.2052
 34122 H2           3.8950    -9.1730   -20.0140 H      5070  TIP4920     0.2052
 34123 OH2        -16.7270    -8.8600    35.1530 O.3    5071  TIP4921    -0.4105
 34124 H1         -17.4800    -9.0240    35.7210 H      5071  TIP4921     0.2052
 34125 H2         -16.7840    -7.9280    34.9430 H      5071  TIP4921     0.2052
 34126 OH2        -21.6400     0.4160    45.9250 O.3    5072  TIP4922    -0.4105
 34127 H1         -22.4260    -0.1270    45.8560 H      5072  TIP4922     0.2052
 34128 H2         -21.8170     1.1670    45.3590 H      5072  TIP4922     0.2052
 34129 OH2        -25.9720   -11.1930    33.2280 O.3    5073  TIP4923    -0.4105
 34130 H1         -25.1260   -10.8010    33.0140 H      5073  TIP4923     0.2052
 34131 H2         -26.0520   -11.0910    34.1770 H      5073  TIP4923     0.2052
 34132 OH2         19.1140     4.8650   -29.3270 O.3    5074  TIP4924    -0.4105
 34133 H1          19.9210     4.3600   -29.4270 H      5074  TIP4924     0.2052
 34134 H2          19.2790     5.6780   -29.8040 H      5074  TIP4924     0.2052
 34135 OH2          1.4280     1.3850    45.3420 O.3    5075  TIP4925    -0.4105
 34136 H1           0.5080     1.5980    45.1820 H      5075  TIP4925     0.2052
 34137 H2           1.4790     0.4370    45.2220 H      5075  TIP4925     0.2052
 34138 OH2        -28.1060    19.1910   -31.1520 O.3    5076  TIP4926    -0.4105
 34139 H1         -28.0380    19.8920   -30.5040 H      5076  TIP4926     0.2052
 34140 H2         -28.7010    19.5360   -31.8170 H      5076  TIP4926     0.2052
 34141 OH2        -31.7070    -4.7000    26.0190 O.3    5077  TIP4927    -0.4105
 34142 H1         -31.1520    -3.9540    26.2440 H      5077  TIP4927     0.2052
 34143 H2         -32.4630    -4.6200    26.6010 H      5077  TIP4927     0.2052
 34144 OH2        -14.2200   -15.3280   -35.8140 O.3    5078  TIP4928    -0.4105
 34145 H1         -13.3870   -14.9130   -35.5890 H      5078  TIP4928     0.2052
 34146 H2         -14.3720   -15.0810   -36.7270 H      5078  TIP4928     0.2052
 34147 OH2         32.9430   -28.6510   -50.7310 O.3    5079  TIP4929    -0.4105
 34148 H1          33.4580   -29.4200   -50.4900 H      5079  TIP4929     0.2052
 34149 H2          33.5810   -28.0400   -51.0990 H      5079  TIP4929     0.2052
 34150 OH2        -32.7050    27.4470   -39.6620 O.3    5080  TIP4930    -0.4105
 34151 H1         -32.9420    27.8840   -38.8440 H      5080  TIP4930     0.2052
 34152 H2         -31.9130    27.8980   -39.9540 H      5080  TIP4930     0.2052
 34153 OH2          8.9670    16.7770    41.4380 O.3    5081  TIP4931    -0.4105
 34154 H1           8.8310    17.3450    40.6800 H      5081  TIP4931     0.2052
 34155 H2           9.6050    17.2440    41.9770 H      5081  TIP4931     0.2052
 34156 OH2        -24.9960   -23.5260    39.3220 O.3    5082  TIP4932    -0.4105
 34157 H1         -24.5690   -24.3520    39.5470 H      5082  TIP4932     0.2052
 34158 H2         -25.3640   -23.6760    38.4510 H      5082  TIP4932     0.2052
 34159 OH2          5.5550   -31.8490    48.3890 O.3    5083  TIP4933    -0.4105
 34160 H1           6.1680   -31.5370    47.7230 H      5083  TIP4933     0.2052
 34161 H2           5.8630   -31.4530    49.2040 H      5083  TIP4933     0.2052
 34162 OH2         10.8610     8.0740    54.0060 O.3    5084  TIP4934    -0.4105
 34163 H1          10.1860     7.4180    53.8350 H      5084  TIP4934     0.2052
 34164 H2          10.8770     8.1600    54.9590 H      5084  TIP4934     0.2052
 34165 OH2        -19.2990    26.5830   -31.9510 O.3    5085  TIP4935    -0.4105
 34166 H1         -18.5680    26.8770   -32.4940 H      5085  TIP4935     0.2052
 34167 H2         -19.8050    27.3770   -31.7790 H      5085  TIP4935     0.2052
 34168 OH2         17.7950    -2.4980    28.4100 O.3    5086  TIP4936    -0.4105
 34169 H1          18.7100    -2.7620    28.3140 H      5086  TIP4936     0.2052
 34170 H2          17.7840    -1.9550    29.1980 H      5086  TIP4936     0.2052
 34171 OH2         29.8830     1.7350   -48.1350 O.3    5087  TIP4937    -0.4105
 34172 H1          30.0640     2.1630   -47.2980 H      5087  TIP4937     0.2052
 34173 H2          30.3700     2.2510   -48.7780 H      5087  TIP4937     0.2052
 34174 OH2        -19.5690     4.0420   -34.2810 O.3    5088  TIP4938    -0.4105
 34175 H1         -19.8790     4.3970   -35.1140 H      5088  TIP4938     0.2052
 34176 H2         -18.7690     4.5330   -34.0930 H      5088  TIP4938     0.2052
 34177 OH2        -16.8540    25.7150   -37.9780 O.3    5089  TIP4939    -0.4105
 34178 H1         -17.3330    26.4470   -38.3660 H      5089  TIP4939     0.2052
 34179 H2         -17.2940    25.5550   -37.1430 H      5089  TIP4939     0.2052
 34180 OH2        -32.1770    13.6070   -37.7250 O.3    5090  TIP4940    -0.4105
 34181 H1         -31.6830    13.3130   -38.4910 H      5090  TIP4940     0.2052
 34182 H2         -33.0230    13.8830   -38.0770 H      5090  TIP4940     0.2052
 34183 OH2        -22.5900   -30.9410    46.0650 O.3    5091  TIP4941    -0.4105
 34184 H1         -21.7950   -31.1720    46.5450 H      5091  TIP4941     0.2052
 34185 H2         -23.2310   -30.7350    46.7460 H      5091  TIP4941     0.2052
 34186 OH2         26.0360   -26.0630   -29.1010 O.3    5092  TIP4942    -0.4105
 34187 H1          25.2920   -26.2630   -29.6690 H      5092  TIP4942     0.2052
 34188 H2          26.8000   -26.1250   -29.6750 H      5092  TIP4942     0.2052
 34189 OH2        -13.3260     8.6060    41.6920 O.3    5093  TIP4943    -0.4105
 34190 H1         -13.5240     8.5100    42.6240 H      5093  TIP4943     0.2052
 34191 H2         -12.5440     9.1570    41.6690 H      5093  TIP4943     0.2052
 34192 OH2         27.3590    -8.5030    24.5570 O.3    5094  TIP4944    -0.4105
 34193 H1          26.7800    -8.0130    23.9730 H      5094  TIP4944     0.2052
 34194 H2          26.8600    -8.5960    25.3680 H      5094  TIP4944     0.2052
 34195 OH2        -22.5760    10.8410    37.3860 O.3    5095  TIP4945    -0.4105
 34196 H1         -23.4820    11.0190    37.1350 H      5095  TIP4945     0.2052
 34197 H2         -22.4700    11.2840    38.2290 H      5095  TIP4945     0.2052
 34198 OH2        -30.8680   -17.7780   -40.0650 O.3    5096  TIP4946    -0.4105
 34199 H1         -30.1910   -18.3740   -40.3870 H      5096  TIP4946     0.2052
 34200 H2         -30.4870   -17.3820   -39.2820 H      5096  TIP4946     0.2052
 34201 OH2        -16.1820   -13.2940   -24.4740 O.3    5097  TIP4947    -0.4105
 34202 H1         -15.2820   -13.0170   -24.3030 H      5097  TIP4947     0.2052
 34203 H2         -16.2120   -14.2050   -24.1810 H      5097  TIP4947     0.2052
 34204 OH2          3.3100   -22.5590   -47.4590 O.3    5098  TIP4948    -0.4105
 34205 H1           4.0270   -22.0900   -47.8860 H      5098  TIP4948     0.2052
 34206 H2           2.5160   -22.1690   -47.8260 H      5098  TIP4948     0.2052
 34207 OH2         -2.7330    18.9380   -52.8490 O.3    5099  TIP4949    -0.4105
 34208 H1          -2.4480    19.8020   -53.1460 H      5099  TIP4949     0.2052
 34209 H2          -2.6640    18.9780   -51.8950 H      5099  TIP4949     0.2052
 34210 OH2         -4.3100   -15.8890    54.3230 O.3    5100  TIP4950    -0.4105
 34211 H1          -4.6070   -15.0040    54.5350 H      5100  TIP4950     0.2052
 34212 H2          -4.7430   -16.4480    54.9690 H      5100  TIP4950     0.2052
 34213 OH2         -2.7210     7.6880    46.8630 O.3    5101  TIP4951    -0.4105
 34214 H1          -3.6310     7.5640    47.1310 H      5101  TIP4951     0.2052
 34215 H2          -2.2310     7.7220    47.6840 H      5101  TIP4951     0.2052
 34216 OH2         14.8010    27.5830   -31.7240 O.3    5102  TIP4952    -0.4105
 34217 H1          15.3290    27.6030   -30.9260 H      5102  TIP4952     0.2052
 34218 H2          15.0430    26.7620   -32.1520 H      5102  TIP4952     0.2052
 34219 OH2         -1.4600   -29.2510    50.1010 O.3    5103  TIP4953    -0.4105
 34220 H1          -1.1260   -29.5190    49.2460 H      5103  TIP4953     0.2052
 34221 H2          -2.3810   -29.5150    50.0930 H      5103  TIP4953     0.2052
 34222 OH2        -29.2190   -18.3460    13.9190 O.3    5104  TIP4954    -0.4105
 34223 H1         -29.9430   -18.3180    14.5440 H      5104  TIP4954     0.2052
 34224 H2         -28.5870   -18.9480    14.3100 H      5104  TIP4954     0.2052
 34225 OH2        -10.7430    28.1260    40.4420 O.3    5105  TIP4955    -0.4105
 34226 H1         -11.5640    27.9010    40.0040 H      5105  TIP4955     0.2052
 34227 H2         -10.9520    28.0950    41.3750 H      5105  TIP4955     0.2052
 34228 OH2        -29.2530     6.0030    54.0640 O.3    5106  TIP4956    -0.4105
 34229 H1         -28.3550     5.8510    54.3600 H      5106  TIP4956     0.2052
 34230 H2         -29.2590     6.9160    53.7750 H      5106  TIP4956     0.2052
 34231 OH2        -15.6170    24.4630    31.4600 O.3    5107  TIP4957    -0.4105
 34232 H1         -15.3260    23.6900    31.9430 H      5107  TIP4957     0.2052
 34233 H2         -15.0720    24.4730    30.6720 H      5107  TIP4957     0.2052
 34234 OH2         19.9650   -22.4530   -48.0300 O.3    5108  TIP4958    -0.4105
 34235 H1          19.2800   -23.0920   -48.2270 H      5108  TIP4958     0.2052
 34236 H2          19.4980   -21.6230   -47.9320 H      5108  TIP4958     0.2052
 34237 OH2        -17.5440    10.0820   -14.1680 O.3    5109  TIP4959    -0.4105
 34238 H1         -17.2660    10.3800   -13.3020 H      5109  TIP4959     0.2052
 34239 H2         -18.4330     9.7530   -14.0350 H      5109  TIP4959     0.2052
 34240 OH2        -19.7210    17.4740   -50.6960 O.3    5110  TIP4960    -0.4105
 34241 H1         -20.2180    18.2880   -50.7750 H      5110  TIP4960     0.2052
 34242 H2         -19.3030    17.5310   -49.8370 H      5110  TIP4960     0.2052
 34243 OH2         -6.4870   -26.3610   -31.7520 O.3    5111  TIP4961    -0.4105
 34244 H1          -7.0470   -26.9930   -31.3010 H      5111  TIP4961     0.2052
 34245 H2          -6.1920   -26.8190   -32.5380 H      5111  TIP4961     0.2052
 34246 OH2        -29.5360   -12.0840   -41.9610 O.3    5112  TIP4962    -0.4105
 34247 H1         -29.0120   -12.7980   -41.5970 H      5112  TIP4962     0.2052
 34248 H2         -30.3050   -12.0380   -41.3940 H      5112  TIP4962     0.2052
 34249 OH2        -30.3120    -1.9040    21.9110 O.3    5113  TIP4963    -0.4105
 34250 H1         -29.8490    -2.2100    21.1320 H      5113  TIP4963     0.2052
 34251 H2         -31.1040    -2.4410    21.9460 H      5113  TIP4963     0.2052
 34252 OH2        -32.4680    23.2830   -53.7190 O.3    5114  TIP4964    -0.4105
 34253 H1         -31.9160    22.5190   -53.8870 H      5114  TIP4964     0.2052
 34254 H2         -32.0240    23.7490   -53.0100 H      5114  TIP4964     0.2052
 34255 OH2          9.2710    -7.5520    39.6900 O.3    5115  TIP4965    -0.4105
 34256 H1           8.6320    -7.1980    39.0710 H      5115  TIP4965     0.2052
 34257 H2           9.4740    -8.4240    39.3530 H      5115  TIP4965     0.2052
 34258 OH2         23.6740    18.8890    40.7340 O.3    5116  TIP4966    -0.4105
 34259 H1          23.6380    17.9720    41.0070 H      5116  TIP4966     0.2052
 34260 H2          22.7590    19.1670    40.7030 H      5116  TIP4966     0.2052
 34261 OH2         10.4230     7.7010    45.9310 O.3    5117  TIP4967    -0.4105
 34262 H1           9.6280     8.2190    46.0550 H      5117  TIP4967     0.2052
 34263 H2          11.1360     8.2950    46.1630 H      5117  TIP4967     0.2052
 34264 OH2         14.7650   -16.2120   -41.8800 O.3    5118  TIP4968    -0.4105
 34265 H1          13.8640   -16.5240   -41.7910 H      5118  TIP4968     0.2052
 34266 H2          15.2150   -16.9100   -42.3570 H      5118  TIP4968     0.2052
 34267 OH2         10.9390   -16.2280    36.4980 O.3    5119  TIP4969    -0.4105
 34268 H1          11.2930   -15.6200    37.1470 H      5119  TIP4969     0.2052
 34269 H2          10.9630   -17.0820    36.9310 H      5119  TIP4969     0.2052
 34270 OH2        -22.5930    -6.1950    27.5900 O.3    5120  TIP4970    -0.4105
 34271 H1         -23.2110    -5.5360    27.9070 H      5120  TIP4970     0.2052
 34272 H2         -22.0890    -5.7450    26.9110 H      5120  TIP4970     0.2052
 34273 OH2          9.6610     0.0600    46.6490 O.3    5121  TIP4971    -0.4105
 34274 H1          10.1480    -0.7430    46.8310 H      5121  TIP4971     0.2052
 34275 H2           9.2450     0.2830    47.4820 H      5121  TIP4971     0.2052
 34276 OH2         30.2010   -10.4660    21.4460 O.3    5122  TIP4972    -0.4105
 34277 H1          30.8550   -11.1430    21.6220 H      5122  TIP4972     0.2052
 34278 H2          30.5430    -9.9940    20.6870 H      5122  TIP4972     0.2052
 34279 OH2         -4.1010     6.1990    35.4520 O.3    5123  TIP4973    -0.4105
 34280 H1          -4.0230     6.5950    36.3200 H      5123  TIP4973     0.2052
 34281 H2          -4.9650     6.4710    35.1420 H      5123  TIP4973     0.2052
 34282 OH2         30.7500   -22.9710    23.5780 O.3    5124  TIP4974    -0.4105
 34283 H1          31.6890   -23.0750    23.7360 H      5124  TIP4974     0.2052
 34284 H2          30.5190   -22.1600    24.0290 H      5124  TIP4974     0.2052
 34285 OH2        -27.8420   -13.8760   -40.3530 O.3    5125  TIP4975    -0.4105
 34286 H1         -28.2700   -13.5690   -39.5530 H      5125  TIP4975     0.2052
 34287 H2         -28.3600   -14.6330   -40.6270 H      5125  TIP4975     0.2052
 34288 OH2        -31.6820    -4.4460    53.1050 O.3    5126  TIP4976    -0.4105
 34289 H1         -31.6880    -4.5100    54.0600 H      5126  TIP4976     0.2052
 34290 H2         -31.4090    -3.5460    52.9260 H      5126  TIP4976     0.2052
 34291 OH2         -0.6390   -23.3330   -21.4480 O.3    5127  TIP4977    -0.4105
 34292 H1           0.2740   -23.2040   -21.7070 H      5127  TIP4977     0.2052
 34293 H2          -0.5890   -23.8390   -20.6370 H      5127  TIP4977     0.2052
 34294 OH2         28.5690    15.5490   -26.0630 O.3    5128  TIP4978    -0.4105
 34295 H1          28.6970    15.5870   -25.1150 H      5128  TIP4978     0.2052
 34296 H2          28.9620    14.7160   -26.3250 H      5128  TIP4978     0.2052
 34297 OH2        -26.9950   -27.9970   -28.2900 O.3    5129  TIP4979    -0.4105
 34298 H1         -27.3880   -28.3840   -27.5080 H      5129  TIP4979     0.2052
 34299 H2         -26.0720   -27.8820   -28.0640 H      5129  TIP4979     0.2052
 34300 OH2        -15.4470   -10.8520    43.0790 O.3    5130  TIP4980    -0.4105
 34301 H1         -15.5660   -11.5620    42.4480 H      5130  TIP4980     0.2052
 34302 H2         -14.8420   -10.2470    42.6490 H      5130  TIP4980     0.2052
 34303 OH2         -6.5120    21.1390   -54.0830 O.3    5131  TIP4981    -0.4105
 34304 H1          -6.1870    20.2900   -54.3840 H      5131  TIP4981     0.2052
 34305 H2          -6.6690    21.0170   -53.1470 H      5131  TIP4981     0.2052
 34306 OH2        -15.6860    -5.6990    22.2730 O.3    5132  TIP4982    -0.4105
 34307 H1         -16.5100    -5.4200    21.8720 H      5132  TIP4982     0.2052
 34308 H2         -15.0980    -5.8490    21.5330 H      5132  TIP4982     0.2052
 34309 OH2          4.6350   -13.8890   -47.1240 O.3    5133  TIP4983    -0.4105
 34310 H1           4.4060   -14.3230   -46.3020 H      5133  TIP4983     0.2052
 34311 H2           5.4030   -14.3660   -47.4410 H      5133  TIP4983     0.2052
 34312 OH2        -20.6240    -2.1170    47.5700 O.3    5134  TIP4984    -0.4105
 34313 H1         -19.7020    -1.8710    47.5060 H      5134  TIP4984     0.2052
 34314 H2         -20.9450    -2.0810    46.6690 H      5134  TIP4984     0.2052
 34315 OH2        -22.6470    26.2840    52.2190 O.3    5135  TIP4985    -0.4105
 34316 H1         -23.2610    26.9810    52.4490 H      5135  TIP4985     0.2052
 34317 H2         -23.1940    25.6010    51.8300 H      5135  TIP4985     0.2052
 34318 OH2         -5.0960   -24.6360   -38.9240 O.3    5136  TIP4986    -0.4105
 34319 H1          -4.2900   -25.1500   -38.8830 H      5136  TIP4986     0.2052
 34320 H2          -5.3980   -24.7340   -39.8270 H      5136  TIP4986     0.2052
 34321 OH2         -5.8940    -1.2080   -43.5040 O.3    5137  TIP4987    -0.4105
 34322 H1          -5.1700    -1.7110   -43.8760 H      5137  TIP4987     0.2052
 34323 H2          -6.6040    -1.3040   -44.1380 H      5137  TIP4987     0.2052
 34324 OH2        -17.4920   -10.5350   -35.3720 O.3    5138  TIP4988    -0.4105
 34325 H1         -18.2270    -9.9220   -35.3870 H      5138  TIP4988     0.2052
 34326 H2         -17.7120   -11.1890   -36.0350 H      5138  TIP4988     0.2052
 34327 OH2          1.1860    12.9970    28.3570 O.3    5139  TIP4989    -0.4105
 34328 H1           1.4080    12.2140    27.8530 H      5139  TIP4989     0.2052
 34329 H2           0.3570    12.7810    28.7830 H      5139  TIP4989     0.2052
 34330 OH2        -29.5940   -21.8260    49.0460 O.3    5140  TIP4990    -0.4105
 34331 H1         -29.5010   -22.6430    49.5360 H      5140  TIP4990     0.2052
 34332 H2         -29.3330   -22.0510    48.1530 H      5140  TIP4990     0.2052
 34333 OH2          6.8410     4.2430    50.7570 O.3    5141  TIP4991    -0.4105
 34334 H1           7.0930     4.6450    51.5880 H      5141  TIP4991     0.2052
 34335 H2           7.4530     3.5140    50.6480 H      5141  TIP4991     0.2052
 34336 OH2         27.9170   -28.4920   -46.0530 O.3    5142  TIP4992    -0.4105
 34337 H1          27.4830   -29.3070   -46.3060 H      5142  TIP4992     0.2052
 34338 H2          28.7780   -28.7670   -45.7370 H      5142  TIP4992     0.2052
 34339 OH2        -21.2600    17.2580   -34.4010 O.3    5143  TIP4993    -0.4105
 34340 H1         -21.1520    17.2300   -33.4510 H      5143  TIP4993     0.2052
 34341 H2         -21.2640    16.3390   -34.6690 H      5143  TIP4993     0.2052
 34342 OH2         21.8830    -3.6390    39.5000 O.3    5144  TIP4994    -0.4105
 34343 H1          22.7940    -3.6440    39.2070 H      5144  TIP4994     0.2052
 34344 H2          21.6540    -4.5650    39.5870 H      5144  TIP4994     0.2052
 34345 OH2         22.0600   -15.3030    28.8220 O.3    5145  TIP4995    -0.4105
 34346 H1          22.1330   -14.3680    29.0150 H      5145  TIP4995     0.2052
 34347 H2          21.2290   -15.5650    29.2180 H      5145  TIP4995     0.2052
 34348 OH2        -10.4750    -3.7870   -35.3070 O.3    5146  TIP4996    -0.4105
 34349 H1         -11.1510    -4.3830   -34.9840 H      5146  TIP4996     0.2052
 34350 H2          -9.7500    -3.8900   -34.6910 H      5146  TIP4996     0.2052
 34351 OH2          7.4180    31.7760   -40.5480 O.3    5147  TIP4997    -0.4105
 34352 H1           8.2570    31.8100   -41.0080 H      5147  TIP4997     0.2052
 34353 H2           7.5660    31.1710   -39.8220 H      5147  TIP4997     0.2052
 34354 OH2        -12.8940   -28.5190   -48.7600 O.3    5148  TIP4998    -0.4105
 34355 H1         -13.3550   -28.9240   -49.4950 H      5148  TIP4998     0.2052
 34356 H2         -12.7490   -29.2370   -48.1440 H      5148  TIP4998     0.2052
 34357 OH2        -23.6370   -17.0670   -42.8680 O.3    5149  TIP4999    -0.4105
 34358 H1         -22.7050   -17.1710   -42.6780 H      5149  TIP4999     0.2052
 34359 H2         -23.8970   -16.2890   -42.3740 H      5149  TIP4999     0.2052
 34360 OH2         29.3940    32.7590   -49.2350 O.3    5150  TIP5000    -0.4105
 34361 H1          29.8270    32.0990   -49.7770 H      5150  TIP5000     0.2052
 34362 H2          28.5650    32.9300   -49.6810 H      5150  TIP5000     0.2052
 34363 OH2        -22.4400   -26.7810   -36.9170 O.3    5151  TIP5001    -0.4105
 34364 H1         -22.6300   -27.1060   -36.0370 H      5151  TIP5001     0.2052
 34365 H2         -23.0280   -27.2770   -37.4880 H      5151  TIP5001     0.2052
 34366 OH2         16.8130    14.0290   -34.3280 O.3    5152  TIP5002    -0.4105
 34367 H1          16.6830    14.3190   -33.4250 H      5152  TIP5002     0.2052
 34368 H2          17.7500    13.8410   -34.3860 H      5152  TIP5002     0.2052
 34369 OH2         29.5200    15.5390    34.9890 O.3    5153  TIP5003    -0.4105
 34370 H1          28.9920    16.2670    34.6610 H      5153  TIP5003     0.2052
 34371 H2          29.5390    15.6650    35.9380 H      5153  TIP5003     0.2052
 34372 OH2          9.3890    19.4440    33.7580 O.3    5154  TIP5004    -0.4105
 34373 H1           9.3850    20.3970    33.6750 H      5154  TIP5004     0.2052
 34374 H2           9.8370    19.2770    34.5880 H      5154  TIP5004     0.2052
 34375 OH2          4.5370     6.5550   -20.3720 O.3    5155  TIP5005    -0.4105
 34376 H1           5.4160     6.6590   -20.0080 H      5155  TIP5005     0.2052
 34377 H2           4.3590     7.3880   -20.8100 H      5155  TIP5005     0.2052
 34378 OH2        -18.4350    -3.2700    26.4290 O.3    5156  TIP5006    -0.4105
 34379 H1         -19.2520    -2.7800    26.5180 H      5156  TIP5006     0.2052
 34380 H2         -18.6970    -4.1070    26.0460 H      5156  TIP5006     0.2052
 34381 OH2         -1.4390   -14.4170   -22.6390 O.3    5157  TIP5007    -0.4105
 34382 H1          -2.2390   -13.8980   -22.7190 H      5157  TIP5007     0.2052
 34383 H2          -1.0770   -14.4390   -23.5250 H      5157  TIP5007     0.2052
 34384 OH2        -12.8310   -13.1770    53.0150 O.3    5158  TIP5008    -0.4105
 34385 H1         -12.1940   -13.8800    52.8850 H      5158  TIP5008     0.2052
 34386 H2         -13.5320   -13.5810    53.5270 H      5158  TIP5008     0.2052
 34387 OH2         16.5670   -12.2720   -54.1800 O.3    5159  TIP5009    -0.4105
 34388 H1          15.7680   -12.7970   -54.2390 H      5159  TIP5009     0.2052
 34389 H2          17.0900   -12.7070   -53.5060 H      5159  TIP5009     0.2052
 34390 OH2         25.2900    17.9520    29.1820 O.3    5160  TIP5010    -0.4105
 34391 H1          24.5810    17.5680    29.6980 H      5160  TIP5010     0.2052
 34392 H2          24.8490    18.5280    28.5580 H      5160  TIP5010     0.2052
 34393 OH2          8.0610   -25.2760   -31.8960 O.3    5161  TIP5011    -0.4105
 34394 H1           8.7040   -25.9740   -31.7780 H      5161  TIP5011     0.2052
 34395 H2           8.2640   -24.6440   -31.2060 H      5161  TIP5011     0.2052
 34396 OH2        -32.1010   -21.8710   -49.8160 O.3    5162  TIP5012    -0.4105
 34397 H1         -31.5900   -21.0690   -49.9280 H      5162  TIP5012     0.2052
 34398 H2         -31.6050   -22.3830   -49.1780 H      5162  TIP5012     0.2052
 34399 OH2         22.8570    25.0950   -26.9310 O.3    5163  TIP5013    -0.4105
 34400 H1          23.3360    24.3800   -26.5110 H      5163  TIP5013     0.2052
 34401 H2          22.3620    24.6730   -27.6320 H      5163  TIP5013     0.2052
 34402 OH2         -8.3630    -7.2850    32.4820 O.3    5164  TIP5014    -0.4105
 34403 H1          -9.1400    -6.9050    32.8920 H      5164  TIP5014     0.2052
 34404 H2          -8.4870    -8.2300    32.5660 H      5164  TIP5014     0.2052
 34405 OH2         14.5970     7.6810    29.2820 O.3    5165  TIP5015    -0.4105
 34406 H1          15.4460     7.2750    29.1040 H      5165  TIP5015     0.2052
 34407 H2          13.9580     6.9960    29.0860 H      5165  TIP5015     0.2052
 34408 OH2         14.3760    31.9700    46.3500 O.3    5166  TIP5016    -0.4105
 34409 H1          15.0640    31.3210    46.2000 H      5166  TIP5016     0.2052
 34410 H2          14.7890    32.8090    46.1500 H      5166  TIP5016     0.2052
 34411 OH2          5.5840    31.9200    40.8430 O.3    5167  TIP5017    -0.4105
 34412 H1           5.9500    31.4510    40.0930 H      5167  TIP5017     0.2052
 34413 H2           4.9290    31.3220    41.2040 H      5167  TIP5017     0.2052
 34414 OH2         -9.6090    22.9090   -44.8570 O.3    5168  TIP5018    -0.4105
 34415 H1          -9.3380    22.1190   -44.3880 H      5168  TIP5018     0.2052
 34416 H2         -10.3650    23.2310   -44.3670 H      5168  TIP5018     0.2052
 34417 OH2         -7.3320     1.0710   -47.6160 O.3    5169  TIP5019    -0.4105
 34418 H1          -7.5950     0.4170   -46.9670 H      5169  TIP5019     0.2052
 34419 H2          -6.9820     1.7950   -47.0980 H      5169  TIP5019     0.2052
 34420 OH2          9.9690     5.4370    44.0320 O.3    5170  TIP5020    -0.4105
 34421 H1           9.9420     6.2850    44.4730 H      5170  TIP5020     0.2052
 34422 H2          10.3530     4.8430    44.6770 H      5170  TIP5020     0.2052
 34423 OH2        -19.7680   -31.5000   -49.7040 O.3    5171  TIP5021    -0.4105
 34424 H1         -19.0010   -32.0540   -49.8520 H      5171  TIP5021     0.2052
 34425 H2         -19.7130   -30.8280   -50.3830 H      5171  TIP5021     0.2052
 34426 OH2         11.6730     7.2130    37.7690 O.3    5172  TIP5022    -0.4105
 34427 H1          12.3560     7.8210    37.4860 H      5172  TIP5022     0.2052
 34428 H2          12.0680     6.7320    38.4960 H      5172  TIP5022     0.2052
 34429 OH2          5.5870    32.9750    24.1140 O.3    5173  TIP5023    -0.4105
 34430 H1           5.5510    32.1490    24.5980 H      5173  TIP5023     0.2052
 34431 H2           6.1560    32.7910    23.3670 H      5173  TIP5023     0.2052
 34432 OH2        -32.2930   -21.9670    48.9750 O.3    5174  TIP5024    -0.4105
 34433 H1         -31.3470   -21.9470    48.8300 H      5174  TIP5024     0.2052
 34434 H2         -32.4920   -21.1250    49.3830 H      5174  TIP5024     0.2052
 34435 OH2        -25.7540     3.3130    38.0500 O.3    5175  TIP5025    -0.4105
 34436 H1         -25.5490     2.4680    37.6480 H      5175  TIP5025     0.2052
 34437 H2         -26.7020     3.4010    37.9530 H      5175  TIP5025     0.2052
 34438 OH2         26.1140   -31.6130   -33.7970 O.3    5176  TIP5026    -0.4105
 34439 H1          26.5790   -32.3410   -33.3830 H      5176  TIP5026     0.2052
 34440 H2          26.1350   -30.9130   -33.1450 H      5176  TIP5026     0.2052
 34441 OH2         -0.6070   -22.1840    49.4020 O.3    5177  TIP5027    -0.4105
 34442 H1          -0.3480   -21.9480    50.2920 H      5177  TIP5027     0.2052
 34443 H2          -1.4100   -22.6920    49.5110 H      5177  TIP5027     0.2052
 34444 OH2         26.2790    -2.6720    13.0400 O.3    5178  TIP5028    -0.4105
 34445 H1          25.6420    -2.8330    12.3450 H      5178  TIP5028     0.2052
 34446 H2          26.3730    -3.5170    13.4800 H      5178  TIP5028     0.2052
 34447 OH2          6.7210   -23.5650    46.1890 O.3    5179  TIP5029    -0.4105
 34448 H1           6.5600   -24.4410    46.5400 H      5179  TIP5029     0.2052
 34449 H2           7.1710   -23.7180    45.3580 H      5179  TIP5029     0.2052
 34450 OH2         27.6030    -8.1610   -50.4660 O.3    5180  TIP5030    -0.4105
 34451 H1          28.2800    -7.4850   -50.4380 H      5180  TIP5030     0.2052
 34452 H2          27.3860    -8.2450   -51.3950 H      5180  TIP5030     0.2052
 34453 OH2          2.6690   -12.2990    34.9340 O.3    5181  TIP5031    -0.4105
 34454 H1           2.7440   -11.5880    35.5710 H      5181  TIP5031     0.2052
 34455 H2           2.2960   -11.8850    34.1560 H      5181  TIP5031     0.2052
 34456 OH2        -29.1760     7.9760   -49.0830 O.3    5182  TIP5032    -0.4105
 34457 H1         -29.5700     8.8210   -48.8680 H      5182  TIP5032     0.2052
 34458 H2         -28.2360     8.1510   -49.1180 H      5182  TIP5032     0.2052
 34459 OH2          2.0570    17.7220    34.7570 O.3    5183  TIP5033    -0.4105
 34460 H1           2.7850    17.1020    34.8070 H      5183  TIP5033     0.2052
 34461 H2           2.3600    18.3990    34.1510 H      5183  TIP5033     0.2052
 34462 OH2         22.0230   -11.6730   -38.2020 O.3    5184  TIP5034    -0.4105
 34463 H1          21.1040   -11.8360   -37.9910 H      5184  TIP5034     0.2052
 34464 H2          21.9960   -11.0900   -38.9600 H      5184  TIP5034     0.2052
 34465 OH2         32.4750   -10.8430   -47.1520 O.3    5185  TIP5035    -0.4105
 34466 H1          31.7950   -10.4920   -46.5780 H      5185  TIP5035     0.2052
 34467 H2          33.0440   -10.0960   -47.3360 H      5185  TIP5035     0.2052
 34468 OH2        -27.5550   -17.0210    45.5610 O.3    5186  TIP5036    -0.4105
 34469 H1         -28.3080   -16.8540    44.9930 H      5186  TIP5036     0.2052
 34470 H2         -27.6750   -17.9230    45.8590 H      5186  TIP5036     0.2052
 34471 OH2        -32.0340     2.5170   -42.8620 O.3    5187  TIP5037    -0.4105
 34472 H1         -31.3630     2.7560   -43.5020 H      5187  TIP5037     0.2052
 34473 H2         -31.5430     2.1750   -42.1150 H      5187  TIP5037     0.2052
 34474 OH2        -20.6630   -22.4910    48.6980 O.3    5188  TIP5038    -0.4105
 34475 H1         -20.8870   -23.2730    48.1920 H      5188  TIP5038     0.2052
 34476 H2         -21.5030   -22.0590    48.8560 H      5188  TIP5038     0.2052
 34477 OH2         -1.7800    31.9850    27.1360 O.3    5189  TIP5039    -0.4105
 34478 H1          -1.6800    31.0410    27.2580 H      5189  TIP5039     0.2052
 34479 H2          -1.4410    32.1520    26.2570 H      5189  TIP5039     0.2052
 34480 OH2        -24.8450   -25.1070   -23.0890 O.3    5190  TIP5040    -0.4105
 34481 H1         -24.0240   -25.4930   -22.7820 H      5190  TIP5040     0.2052
 34482 H2         -25.4610   -25.2520   -22.3710 H      5190  TIP5040     0.2052
 34483 OH2        -14.1830   -30.6130    25.8880 O.3    5191  TIP5041    -0.4105
 34484 H1         -14.9910   -30.6050    26.3990 H      5191  TIP5041     0.2052
 34485 H2         -14.2360   -29.8280    25.3420 H      5191  TIP5041     0.2052
 34486 OH2        -14.2040    -4.1700    31.5940 O.3    5192  TIP5042    -0.4105
 34487 H1         -14.0750    -3.8660    30.6950 H      5192  TIP5042     0.2052
 34488 H2         -13.4210    -4.6870    31.7870 H      5192  TIP5042     0.2052
 34489 OH2        -29.9230    18.3060   -25.2600 O.3    5193  TIP5043    -0.4105
 34490 H1         -30.0380    18.7380   -24.4130 H      5193  TIP5043     0.2052
 34491 H2         -30.0310    17.3740   -25.0700 H      5193  TIP5043     0.2052
 34492 OH2        -11.8380   -20.2990   -28.3500 O.3    5194  TIP5044    -0.4105
 34493 H1         -11.5070   -19.4110   -28.4790 H      5194  TIP5044     0.2052
 34494 H2         -11.7160   -20.7270   -29.1970 H      5194  TIP5044     0.2052
 34495 OH2         -5.5810    15.3280   -30.2510 O.3    5195  TIP5045    -0.4105
 34496 H1          -4.8150    15.7930   -30.5880 H      5195  TIP5045     0.2052
 34497 H2          -6.3190    15.9010   -30.4570 H      5195  TIP5045     0.2052
 34498 OH2         14.3670   -19.7440   -38.7230 O.3    5196  TIP5046    -0.4105
 34499 H1          13.8310   -20.0860   -39.4390 H      5196  TIP5046     0.2052
 34500 H2          13.7340   -19.4490   -38.0680 H      5196  TIP5046     0.2052
 34501 OH2        -25.4120   -12.4450    38.7780 O.3    5197  TIP5047    -0.4105
 34502 H1         -25.5080   -12.3070    39.7210 H      5197  TIP5047     0.2052
 34503 H2         -26.1900   -12.0400    38.3960 H      5197  TIP5047     0.2052
 34504 OH2        -22.7540     2.4260   -27.9990 O.3    5198  TIP5048    -0.4105
 34505 H1         -22.7390     3.3780   -27.9000 H      5198  TIP5048     0.2052
 34506 H2         -23.6680     2.1840   -27.8530 H      5198  TIP5048     0.2052
 34507 OH2        -29.4340    -9.6850   -47.0390 O.3    5199  TIP5049    -0.4105
 34508 H1         -28.6200    -9.1890   -47.1290 H      5199  TIP5049     0.2052
 34509 H2         -29.1520   -10.5630   -46.7810 H      5199  TIP5049     0.2052
 34510 OH2         -2.6830     8.9720    21.7480 O.3    5200  TIP5050    -0.4105
 34511 H1          -2.5690     8.8680    22.6930 H      5200  TIP5050     0.2052
 34512 H2          -3.4260     9.5690    21.6600 H      5200  TIP5050     0.2052
 34513 OH2          2.7160   -29.6670    24.5370 O.3    5201  TIP5051    -0.4105
 34514 H1           2.3620   -28.7970    24.7200 H      5201  TIP5051     0.2052
 34515 H2           2.9470   -29.6410    23.6080 H      5201  TIP5051     0.2052
 34516 OH2         -7.8590   -11.8920   -40.5640 O.3    5202  TIP5052    -0.4105
 34517 H1          -7.1260   -11.2800   -40.6210 H      5202  TIP5052     0.2052
 34518 H2          -8.6210   -11.3390   -40.3960 H      5202  TIP5052     0.2052
 34519 OH2         -3.4860     9.1660    42.3350 O.3    5203  TIP5053    -0.4105
 34520 H1          -2.6310     8.9810    41.9470 H      5203  TIP5053     0.2052
 34521 H2          -3.6130    10.1050    42.2000 H      5203  TIP5053     0.2052
 34522 OH2        -21.3240    22.5700   -51.5270 O.3    5204  TIP5054    -0.4105
 34523 H1         -21.1730    23.4100   -51.9610 H      5204  TIP5054     0.2052
 34524 H2         -21.7090    22.8020   -50.6820 H      5204  TIP5054     0.2052
 34525 OH2        -27.1320    -1.0340   -41.8000 O.3    5205  TIP5055    -0.4105
 34526 H1         -26.9880    -0.0960   -41.6770 H      5205  TIP5055     0.2052
 34527 H2         -26.5890    -1.4500   -41.1310 H      5205  TIP5055     0.2052
 34528 OH2         11.1390    -2.3850    45.6860 O.3    5206  TIP5056    -0.4105
 34529 H1          11.9690    -2.7080    46.0380 H      5206  TIP5056     0.2052
 34530 H2          11.1670    -2.6120    44.7570 H      5206  TIP5056     0.2052
 34531 OH2         -4.9650   -12.5390    52.1940 O.3    5207  TIP5057    -0.4105
 34532 H1          -5.1450   -13.1390    51.4700 H      5207  TIP5057     0.2052
 34533 H2          -4.5950   -11.7620    51.7750 H      5207  TIP5057     0.2052
 34534 OH2        -17.0580     0.7960    39.5590 O.3    5208  TIP5058    -0.4105
 34535 H1         -17.9080     1.1960    39.7440 H      5208  TIP5058     0.2052
 34536 H2         -16.5100     1.5230    39.2640 H      5208  TIP5058     0.2052
 34537 OH2          4.4370    15.6780   -42.3780 O.3    5209  TIP5059    -0.4105
 34538 H1           3.7590    15.9690   -41.7680 H      5209  TIP5059     0.2052
 34539 H2           5.0480    16.4140   -42.4270 H      5209  TIP5059     0.2052
 34540 OH2        -28.1060   -31.6290   -28.9500 O.3    5210  TIP5060    -0.4105
 34541 H1         -28.3670   -30.8540   -29.4470 H      5210  TIP5060     0.2052
 34542 H2         -27.2830   -31.3790   -28.5300 H      5210  TIP5060     0.2052
 34543 OH2        -27.5130   -19.4710   -24.8350 O.3    5211  TIP5061    -0.4105
 34544 H1         -27.2050   -18.5890   -24.6290 H      5211  TIP5061     0.2052
 34545 H2         -26.7170   -20.0030   -24.8640 H      5211  TIP5061     0.2052
 34546 OH2        -23.6800   -22.1420   -43.0380 O.3    5212  TIP5062    -0.4105
 34547 H1         -23.2030   -22.8840   -42.6650 H      5212  TIP5062     0.2052
 34548 H2         -23.2790   -22.0070   -43.8970 H      5212  TIP5062     0.2052
 34549 OH2        -20.8970   -20.1970    29.7410 O.3    5213  TIP5063    -0.4105
 34550 H1         -21.3770   -20.3160    28.9210 H      5213  TIP5063     0.2052
 34551 H2         -20.5860   -21.0740    29.9660 H      5213  TIP5063     0.2052
 34552 OH2        -22.2350    -6.4600   -52.8110 O.3    5214  TIP5064    -0.4105
 34553 H1         -21.9290    -6.8900   -53.6100 H      5214  TIP5064     0.2052
 34554 H2         -21.9090    -7.0130   -52.1010 H      5214  TIP5064     0.2052
 34555 OH2        -32.5890   -16.6960    45.0790 O.3    5215  TIP5065    -0.4105
 34556 H1         -32.4300   -16.3710    44.1930 H      5215  TIP5065     0.2052
 34557 H2         -32.2270   -17.5820    45.0780 H      5215  TIP5065     0.2052
 34558 OH2        -30.3140    -1.6610   -22.5350 O.3    5216  TIP5066    -0.4105
 34559 H1         -29.8270    -1.1390   -23.1730 H      5216  TIP5066     0.2052
 34560 H2         -31.0600    -1.1110   -22.2950 H      5216  TIP5066     0.2052
 34561 OH2         -3.7700    -1.6620    53.6470 O.3    5217  TIP5067    -0.4105
 34562 H1          -4.5080    -1.3550    53.1200 H      5217  TIP5067     0.2052
 34563 H2          -3.0760    -1.8330    53.0100 H      5217  TIP5067     0.2052
 34564 OH2          6.6790    29.6270   -28.3670 O.3    5218  TIP5068    -0.4105
 34565 H1           6.8700    28.7830   -28.7760 H      5218  TIP5068     0.2052
 34566 H2           6.3810    29.4040   -27.4850 H      5218  TIP5068     0.2052
 34567 OH2          2.7790    26.1720    48.9750 O.3    5219  TIP5069    -0.4105
 34568 H1           3.1380    26.2300    48.0900 H      5219  TIP5069     0.2052
 34569 H2           2.7520    25.2330    49.1620 H      5219  TIP5069     0.2052
 34570 OH2         16.1090    20.6900    46.2900 O.3    5220  TIP5070    -0.4105
 34571 H1          15.1630    20.8350    46.2920 H      5220  TIP5070     0.2052
 34572 H2          16.2420    19.9630    46.8990 H      5220  TIP5070     0.2052
 34573 OH2         -1.9820     9.0520    36.2280 O.3    5221  TIP5071    -0.4105
 34574 H1          -1.0900     9.3380    36.0320 H      5221  TIP5071     0.2052
 34575 H2          -2.5410     9.6750    35.7630 H      5221  TIP5071     0.2052
 34576 OH2         31.9910    10.0480   -51.9010 O.3    5222  TIP5072    -0.4105
 34577 H1          32.1750     9.2920   -51.3440 H      5222  TIP5072     0.2052
 34578 H2          32.7130    10.0650   -52.5290 H      5222  TIP5072     0.2052
 34579 OH2        -21.2250    -3.1190    44.8700 O.3    5223  TIP5073    -0.4105
 34580 H1         -21.6700    -2.6940    44.1360 H      5223  TIP5073     0.2052
 34581 H2         -20.5350    -3.6410    44.4610 H      5223  TIP5073     0.2052
 34582 OH2        -20.9610     3.9970    53.2650 O.3    5224  TIP5074    -0.4105
 34583 H1         -21.7040     4.5560    53.4920 H      5224  TIP5074     0.2052
 34584 H2         -20.8080     3.4710    54.0500 H      5224  TIP5074     0.2052
 34585 OH2        -32.4650     1.2540   -17.0680 O.3    5225  TIP5075    -0.4105
 34586 H1         -32.5060     0.3070   -17.2030 H      5225  TIP5075     0.2052
 34587 H2         -32.5720     1.3660   -16.1240 H      5225  TIP5075     0.2052
 34588 OH2         -4.9690   -30.4070    44.4730 O.3    5226  TIP5076    -0.4105
 34589 H1          -4.9460   -31.2040    43.9430 H      5226  TIP5076     0.2052
 34590 H2          -5.9010   -30.2300    44.5990 H      5226  TIP5076     0.2052
 34591 OH2        -17.6210    29.4110    44.9160 O.3    5227  TIP5077    -0.4105
 34592 H1         -17.0470    28.8270    45.4120 H      5227  TIP5077     0.2052
 34593 H2         -18.2080    29.7870    45.5720 H      5227  TIP5077     0.2052
 34594 OH2         17.3470     4.4940   -17.8720 O.3    5228  TIP5078    -0.4105
 34595 H1          16.8160     4.4320   -18.6660 H      5228  TIP5078     0.2052
 34596 H2          16.7140     4.6460   -17.1700 H      5228  TIP5078     0.2052
 34597 OH2        -11.6970    -0.7350    50.9590 O.3    5229  TIP5079    -0.4105
 34598 H1         -11.9220    -1.0560    50.0860 H      5229  TIP5079     0.2052
 34599 H2         -11.0030    -0.0930    50.8070 H      5229  TIP5079     0.2052
 34600 OH2        -28.8320    -5.9480   -35.0350 O.3    5230  TIP5080    -0.4105
 34601 H1         -29.7180    -6.3120   -35.0460 H      5230  TIP5080     0.2052
 34602 H2         -28.3700    -6.4190   -35.7290 H      5230  TIP5080     0.2052
 34603 OH2         25.4110   -26.6280    40.3040 O.3    5231  TIP5081    -0.4105
 34604 H1          26.0670   -27.2170    39.9300 H      5231  TIP5081     0.2052
 34605 H2          25.8490   -25.7780    40.3470 H      5231  TIP5081     0.2052
 34606 OH2         31.1540    -9.4460    46.0750 O.3    5232  TIP5082    -0.4105
 34607 H1          30.7220    -9.2080    45.2550 H      5232  TIP5082     0.2052
 34608 H2          31.5190   -10.3160    45.9120 H      5232  TIP5082     0.2052
 34609 OH2          7.0770    31.8480   -30.0950 O.3    5233  TIP5083    -0.4105
 34610 H1           7.3650    31.1270   -29.5350 H      5233  TIP5083     0.2052
 34611 H2           7.8120    32.4600   -30.0950 H      5233  TIP5083     0.2052
 34612 OH2          0.8320    30.9890   -49.7030 O.3    5234  TIP5084    -0.4105
 34613 H1           0.5500    31.0010   -50.6180 H      5234  TIP5084     0.2052
 34614 H2           1.7250    30.6470   -49.7320 H      5234  TIP5084     0.2052
 34615 OH2        -30.8940   -19.9410   -42.4860 O.3    5235  TIP5085    -0.4105
 34616 H1         -31.5470   -19.2620   -42.3170 H      5235  TIP5085     0.2052
 34617 H2         -31.3040   -20.7500   -42.1800 H      5235  TIP5085     0.2052
 34618 OH2         30.8000    30.3730   -36.0980 O.3    5236  TIP5086    -0.4105
 34619 H1          30.1720    29.7350   -35.7600 H      5236  TIP5086     0.2052
 34620 H2          30.4360    30.6460   -36.9400 H      5236  TIP5086     0.2052
 34621 OH2         17.5130    23.6800   -34.5180 O.3    5237  TIP5087    -0.4105
 34622 H1          17.0190    23.1340   -33.9060 H      5237  TIP5087     0.2052
 34623 H2          17.3830    23.2640   -35.3700 H      5237  TIP5087     0.2052
 34624 OH2        -19.0570   -12.6790   -49.5470 O.3    5238  TIP5088    -0.4105
 34625 H1         -18.3420   -12.6480   -48.9110 H      5238  TIP5088     0.2052
 34626 H2         -19.0540   -13.5800   -49.8680 H      5238  TIP5088     0.2052
 34627 OH2        -15.5050    -4.3700   -38.9580 O.3    5239  TIP5089    -0.4105
 34628 H1         -14.8710    -4.9670   -39.3530 H      5239  TIP5089     0.2052
 34629 H2         -15.2960    -4.3810   -38.0240 H      5239  TIP5089     0.2052
 34630 OH2        -28.3740     1.7180    33.2420 O.3    5240  TIP5090    -0.4105
 34631 H1         -28.4120     0.8600    33.6650 H      5240  TIP5090     0.2052
 34632 H2         -27.6220     1.6600    32.6520 H      5240  TIP5090     0.2052
 34633 OH2        -19.3360   -29.2440   -32.7890 O.3    5241  TIP5091    -0.4105
 34634 H1         -19.0350   -29.0940   -31.8930 H      5241  TIP5091     0.2052
 34635 H2         -19.4680   -30.1910   -32.8420 H      5241  TIP5091     0.2052
 34636 OH2         -2.7020    -4.7400   -18.6540 O.3    5242  TIP5092    -0.4105
 34637 H1          -3.5340    -4.3680   -18.9470 H      5242  TIP5092     0.2052
 34638 H2          -2.7180    -4.6420   -17.7020 H      5242  TIP5092     0.2052
 34639 OH2         12.3730    18.4400   -54.3650 O.3    5243  TIP5093    -0.4105
 34640 H1          12.1820    19.0630   -55.0660 H      5243  TIP5093     0.2052
 34641 H2          12.9090    18.9330   -53.7440 H      5243  TIP5093     0.2052
 34642 OH2         15.1310    30.4590    41.5830 O.3    5244  TIP5094    -0.4105
 34643 H1          15.9850    30.0950    41.8180 H      5244  TIP5094     0.2052
 34644 H2          15.3230    31.3470    41.2810 H      5244  TIP5094     0.2052
 34645 OH2         11.5510    26.8540   -27.2260 O.3    5245  TIP5095    -0.4105
 34646 H1          10.9750    27.5950   -27.0400 H      5245  TIP5095     0.2052
 34647 H2          12.4040    27.2510   -27.4020 H      5245  TIP5095     0.2052
 34648 OH2         16.0140   -19.0770   -54.1140 O.3    5246  TIP5096    -0.4105
 34649 H1          15.5710   -19.7970   -53.6640 H      5246  TIP5096     0.2052
 34650 H2          15.5420   -18.9830   -54.9410 H      5246  TIP5096     0.2052
 34651 OH2        -18.5060     8.1510    27.6690 O.3    5247  TIP5097    -0.4105
 34652 H1         -19.2280     8.7260    27.9260 H      5247  TIP5097     0.2052
 34653 H2         -18.9260     7.3170    27.4620 H      5247  TIP5097     0.2052
 34654 OH2         28.2200   -30.0950   -38.3650 O.3    5248  TIP5098    -0.4105
 34655 H1          28.8150   -30.7760   -38.6790 H      5248  TIP5098     0.2052
 34656 H2          28.2700   -30.1520   -37.4110 H      5248  TIP5098     0.2052
 34657 OH2        -12.2160    22.1050    36.4480 O.3    5249  TIP5099    -0.4105
 34658 H1         -11.4070    22.3190    36.9120 H      5249  TIP5099     0.2052
 34659 H2         -12.3780    22.8620    35.8850 H      5249  TIP5099     0.2052
 34660 OH2        -31.7810     0.1690   -21.2930 O.3    5250  TIP5100    -0.4105
 34661 H1         -32.1730    -0.3840   -20.6180 H      5250  TIP5100     0.2052
 34662 H2         -31.3410     0.8660   -20.8070 H      5250  TIP5100     0.2052
 34663 OH2         27.3590    10.9020    28.0790 O.3    5251  TIP5101    -0.4105
 34664 H1          27.6770    10.3710    27.3490 H      5251  TIP5101     0.2052
 34665 H2          26.4270    11.0250    27.9000 H      5251  TIP5101     0.2052
 34666 OH2        -24.8930   -10.8640   -47.7020 O.3    5252  TIP5102    -0.4105
 34667 H1         -24.4680   -11.2560   -48.4640 H      5252  TIP5102     0.2052
 34668 H2         -25.5440   -11.5100   -47.4300 H      5252  TIP5102     0.2052
 34669 OH2         21.2650   -10.6650    37.5940 O.3    5253  TIP5103    -0.4105
 34670 H1          20.8670    -9.8020    37.7130 H      5253  TIP5103     0.2052
 34671 H2          21.5700   -10.9110    38.4670 H      5253  TIP5103     0.2052
 34672 OH2          3.6220    10.4210    29.2080 O.3    5254  TIP5104    -0.4105
 34673 H1           4.3010    10.8070    29.7610 H      5254  TIP5104     0.2052
 34674 H2           3.5370    11.0270    28.4720 H      5254  TIP5104     0.2052
 34675 OH2        -22.5780   -13.0000   -23.8650 O.3    5255  TIP5105    -0.4105
 34676 H1         -22.7300   -12.0680   -23.7080 H      5255  TIP5105     0.2052
 34677 H2         -22.3810   -13.3600   -23.0010 H      5255  TIP5105     0.2052
 34678 OH2         -6.0350   -22.4500    19.5640 O.3    5256  TIP5106    -0.4105
 34679 H1          -5.2760   -21.9440    19.2740 H      5256  TIP5106     0.2052
 34680 H2          -6.6370   -22.4270    18.8200 H      5256  TIP5106     0.2052
 34681 OH2        -13.0640   -28.1270   -53.1770 O.3    5257  TIP5107    -0.4105
 34682 H1         -13.7080   -27.4260   -53.0770 H      5257  TIP5107     0.2052
 34683 H2         -12.2570   -27.6780   -53.4270 H      5257  TIP5107     0.2052
 34684 OH2        -12.3620    14.3650   -40.9650 O.3    5258  TIP5108    -0.4105
 34685 H1         -13.2630    14.0680   -41.0970 H      5258  TIP5108     0.2052
 34686 H2         -12.4450    15.1530   -40.4290 H      5258  TIP5108     0.2052
 34687 OH2        -31.2850    17.7710   -32.3250 O.3    5259  TIP5109    -0.4105
 34688 H1         -32.0070    18.2150   -32.7690 H      5259  TIP5109     0.2052
 34689 H2         -30.6660    18.4710   -32.1160 H      5259  TIP5109     0.2052
 34690 OH2         14.7780   -23.1270   -45.9400 O.3    5260  TIP5110    -0.4105
 34691 H1          15.3800   -22.4010   -45.7790 H      5260  TIP5110     0.2052
 34692 H2          14.2330   -23.1660   -45.1550 H      5260  TIP5110     0.2052
 34693 OH2         20.7070    26.0770   -34.7860 O.3    5261  TIP5111    -0.4105
 34694 H1          20.8760    26.8980   -34.3230 H      5261  TIP5111     0.2052
 34695 H2          20.5280    26.3420   -35.6880 H      5261  TIP5111     0.2052
 34696 OH2        -31.9020    30.7050   -43.7490 O.3    5262  TIP5112    -0.4105
 34697 H1         -32.2910    30.6800   -42.8750 H      5262  TIP5112     0.2052
 34698 H2         -31.0990    31.2140   -43.6410 H      5262  TIP5112     0.2052
 34699 OH2         -2.8740    14.2950    28.8560 O.3    5263  TIP5113    -0.4105
 34700 H1          -3.6730    14.2780    29.3830 H      5263  TIP5113     0.2052
 34701 H2          -3.1390    14.7020    28.0320 H      5263  TIP5113     0.2052
 34702 OH2        -13.7690   -12.2700   -53.3350 O.3    5264  TIP5114    -0.4105
 34703 H1         -13.8930   -12.3190   -52.3870 H      5264  TIP5114     0.2052
 34704 H2         -14.0870   -13.1120   -53.6630 H      5264  TIP5114     0.2052
 34705 OH2         28.2250   -12.2170    26.4660 O.3    5265  TIP5115    -0.4105
 34706 H1          28.4190   -11.9420    25.5700 H      5265  TIP5115     0.2052
 34707 H2          27.9130   -11.4220    26.8990 H      5265  TIP5115     0.2052
 34708 OH2         27.8130   -16.4900    43.3040 O.3    5266  TIP5116    -0.4105
 34709 H1          26.8580   -16.4520    43.2520 H      5266  TIP5116     0.2052
 34710 H2          28.0000   -16.5730    44.2390 H      5266  TIP5116     0.2052
 34711 OH2         25.1920    11.3480    48.3160 O.3    5267  TIP5117    -0.4105
 34712 H1          24.6680    10.8570    48.9490 H      5267  TIP5117     0.2052
 34713 H2          25.4210    10.7060    47.6440 H      5267  TIP5117     0.2052
 34714 OH2        -20.9010   -18.4780   -36.7100 O.3    5268  TIP5118    -0.4105
 34715 H1         -21.3460   -17.6730   -36.9740 H      5268  TIP5118     0.2052
 34716 H2         -19.9690   -18.2670   -36.7660 H      5268  TIP5118     0.2052
 34717 OH2         25.0610    18.4830    38.3290 O.3    5269  TIP5119    -0.4105
 34718 H1          25.9420    18.8580    38.3220 H      5269  TIP5119     0.2052
 34719 H2          24.6930    18.7490    39.1720 H      5269  TIP5119     0.2052
 34720 OH2        -19.2890   -26.6460    39.6580 O.3    5270  TIP5120    -0.4105
 34721 H1         -19.0480   -27.2680    38.9720 H      5270  TIP5120     0.2052
 34722 H2         -19.7770   -25.9620    39.2010 H      5270  TIP5120     0.2052
 34723 OH2         29.7140     9.6970    36.8540 O.3    5271  TIP5121    -0.4105
 34724 H1          28.8090     9.4470    36.6630 H      5271  TIP5121     0.2052
 34725 H2          29.7100    10.6530    36.8210 H      5271  TIP5121     0.2052
 34726 OH2         -4.1560    -4.0840    49.7060 O.3    5272  TIP5122    -0.4105
 34727 H1          -4.3260    -3.1500    49.5870 H      5272  TIP5122     0.2052
 34728 H2          -3.4180    -4.1180    50.3150 H      5272  TIP5122     0.2052
 34729 OH2         -6.6300   -11.4850    48.9340 O.3    5273  TIP5123    -0.4105
 34730 H1          -7.1880   -11.9310    48.2960 H      5273  TIP5123     0.2052
 34731 H2          -7.1950   -10.8170    49.3210 H      5273  TIP5123     0.2052
 34732 OH2        -11.0890    23.5280    42.9140 O.3    5274  TIP5124    -0.4105
 34733 H1         -10.8530    23.6940    43.8270 H      5274  TIP5124     0.2052
 34734 H2         -10.9570    24.3690    42.4760 H      5274  TIP5124     0.2052
 34735 OH2        -10.0160    14.6720    32.4270 O.3    5275  TIP5125    -0.4105
 34736 H1         -10.8490    14.7340    32.8950 H      5275  TIP5125     0.2052
 34737 H2          -9.9050    13.7360    32.2580 H      5275  TIP5125     0.2052
 34738 OH2        -14.5740   -26.8350    31.9930 O.3    5276  TIP5126    -0.4105
 34739 H1         -15.0510   -26.0120    32.1020 H      5276  TIP5126     0.2052
 34740 H2         -14.7720   -27.1110    31.0980 H      5276  TIP5126     0.2052
 34741 OH2         -2.6570   -13.8840   -46.4980 O.3    5277  TIP5127    -0.4105
 34742 H1          -3.2400   -14.1840   -45.7990 H      5277  TIP5127     0.2052
 34743 H2          -2.3750   -14.6870   -46.9350 H      5277  TIP5127     0.2052
 34744 OH2         -4.3890   -26.0170    40.6380 O.3    5278  TIP5128    -0.4105
 34745 H1          -3.8130   -26.0730    41.4000 H      5278  TIP5128     0.2052
 34746 H2          -4.4870   -26.9230    40.3440 H      5278  TIP5128     0.2052
 34747 OH2         21.2990    15.4510   -27.6140 O.3    5279  TIP5129    -0.4105
 34748 H1          21.0280    14.6300   -27.2020 H      5279  TIP5129     0.2052
 34749 H2          20.4810    15.9270   -27.7600 H      5279  TIP5129     0.2052
 34750 OH2        -13.6860    16.5120   -54.5960 O.3    5280  TIP5130    -0.4105
 34751 H1         -13.8310    16.2130   -55.4930 H      5280  TIP5130     0.2052
 34752 H2         -13.9690    17.4270   -54.5990 H      5280  TIP5130     0.2052
 34753 OH2         16.5670    -4.7850   -25.5360 O.3    5281  TIP5131    -0.4105
 34754 H1          17.4200    -4.7310   -25.9670 H      5281  TIP5131     0.2052
 34755 H2          16.7000    -4.3650   -24.6860 H      5281  TIP5131     0.2052
 34756 OH2          9.9230    25.0090   -49.7380 O.3    5282  TIP5132    -0.4105
 34757 H1          10.0590    25.7910   -50.2730 H      5282  TIP5132     0.2052
 34758 H2           9.0950    24.6450   -50.0500 H      5282  TIP5132     0.2052
 34759 OH2        -18.6580    25.0080    35.7670 O.3    5283  TIP5133    -0.4105
 34760 H1         -18.1740    24.9550    34.9430 H      5283  TIP5133     0.2052
 34761 H2         -19.2510    24.2580    35.7460 H      5283  TIP5133     0.2052
 34762 OH2         22.5860    11.4290    37.5580 O.3    5284  TIP5134    -0.4105
 34763 H1          22.0670    11.5640    38.3510 H      5284  TIP5134     0.2052
 34764 H2          22.3770    12.1810    37.0030 H      5284  TIP5134     0.2052
 34765 OH2          7.3600   -15.0470    32.6250 O.3    5285  TIP5135    -0.4105
 34766 H1           6.6640   -14.9300    33.2720 H      5285  TIP5135     0.2052
 34767 H2           7.4520   -15.9960    32.5410 H      5285  TIP5135     0.2052
 34768 OH2          3.1100    23.8210    28.6190 O.3    5286  TIP5136    -0.4105
 34769 H1           2.2330    24.0320    28.9390 H      5286  TIP5136     0.2052
 34770 H2           3.0800    22.8820    28.4360 H      5286  TIP5136     0.2052
 34771 OH2         31.8870    32.9300    54.7930 O.3    5287  TIP5137    -0.4105
 34772 H1          31.5580    33.1100    53.9130 H      5287  TIP5137     0.2052
 34773 H2          31.2310    32.3510    55.1810 H      5287  TIP5137     0.2052
 34774 OH2          1.6890     5.7540    23.6440 O.3    5288  TIP5138    -0.4105
 34775 H1           2.3210     5.2110    23.1730 H      5288  TIP5138     0.2052
 34776 H2           0.8570     5.5950    23.1980 H      5288  TIP5138     0.2052
 34777 OH2         21.3900    31.2890    34.3670 O.3    5289  TIP5139    -0.4105
 34778 H1          20.4770    31.2160    34.6440 H      5289  TIP5139     0.2052
 34779 H2          21.8000    31.8410    35.0330 H      5289  TIP5139     0.2052
 34780 OH2         11.5700    -6.9390   -21.7800 O.3    5290  TIP5140    -0.4105
 34781 H1          10.7900    -6.6820   -22.2730 H      5290  TIP5140     0.2052
 34782 H2          11.2510    -7.0950   -20.8910 H      5290  TIP5140     0.2052
 34783 OH2         15.6870    15.0090    32.9920 O.3    5291  TIP5141    -0.4105
 34784 H1          14.9890    14.9140    32.3440 H      5291  TIP5141     0.2052
 34785 H2          15.6580    15.9330    33.2420 H      5291  TIP5141     0.2052
 34786 OH2         -6.9290    18.3310   -52.3000 O.3    5292  TIP5142    -0.4105
 34787 H1          -6.4140    17.7160   -51.7770 H      5292  TIP5142     0.2052
 34788 H2          -7.5220    18.7420   -51.6700 H      5292  TIP5142     0.2052
 34789 OH2         31.3660     2.0220   -24.8850 O.3    5293  TIP5143    -0.4105
 34790 H1          31.8340     2.5710   -24.2560 H      5293  TIP5143     0.2052
 34791 H2          31.4780     2.4690   -25.7240 H      5293  TIP5143     0.2052
 34792 OH2         -0.0540    15.7720   -31.9760 O.3    5294  TIP5144    -0.4105
 34793 H1          -0.2980    14.9620   -32.4230 H      5294  TIP5144     0.2052
 34794 H2          -0.3490    16.4680   -32.5630 H      5294  TIP5144     0.2052
 34795 OH2        -21.6520    21.6560   -29.3540 O.3    5295  TIP5145    -0.4105
 34796 H1         -21.2400    22.0090   -28.5650 H      5295  TIP5145     0.2052
 34797 H2         -21.1150    20.8980   -29.5860 H      5295  TIP5145     0.2052
 34798 OH2        -11.8130    26.6400   -28.7230 O.3    5296  TIP5146    -0.4105
 34799 H1         -12.7440    26.5310   -28.9200 H      5296  TIP5146     0.2052
 34800 H2         -11.6000    25.8970   -28.1580 H      5296  TIP5146     0.2052
 34801 OH2         21.8250    -6.2970   -50.5260 O.3    5297  TIP5147    -0.4105
 34802 H1          21.6780    -6.4830   -49.5990 H      5297  TIP5147     0.2052
 34803 H2          21.0030    -6.5370   -50.9530 H      5297  TIP5147     0.2052
 34804 OH2        -12.8460    21.2560    17.3530 O.3    5298  TIP5148    -0.4105
 34805 H1         -13.6630    21.7520    17.3070 H      5298  TIP5148     0.2052
 34806 H2         -12.2950    21.6370    16.6690 H      5298  TIP5148     0.2052
 34807 OH2         32.9540   -19.4640    36.9840 O.3    5299  TIP5149    -0.4105
 34808 H1          33.0020   -19.7590    36.0740 H      5299  TIP5149     0.2052
 34809 H2          32.7830   -20.2600    37.4860 H      5299  TIP5149     0.2052
 34810 OH2         -5.9970   -26.4690   -27.6650 O.3    5300  TIP5150    -0.4105
 34811 H1          -6.4710   -26.8860   -26.9450 H      5300  TIP5150     0.2052
 34812 H2          -6.6210   -25.8420   -28.0310 H      5300  TIP5150     0.2052
 34813 OH2          7.6690     1.8290   -17.6470 O.3    5301  TIP5151    -0.4105
 34814 H1           8.4520     2.2890   -17.3470 H      5301  TIP5151     0.2052
 34815 H2           6.9560     2.4540   -17.5130 H      5301  TIP5151     0.2052
 34816 OH2        -32.9010   -15.4860   -34.8070 O.3    5302  TIP5152    -0.4105
 34817 H1         -32.1570   -15.8430   -34.3220 H      5302  TIP5152     0.2052
 34818 H2         -33.0060   -16.0750   -35.5540 H      5302  TIP5152     0.2052
 34819 OH2        -27.4920    27.7180    44.3810 O.3    5303  TIP5153    -0.4105
 34820 H1         -26.6860    28.1700    44.6310 H      5303  TIP5153     0.2052
 34821 H2         -28.1420    28.4150    44.2990 H      5303  TIP5153     0.2052
 34822 OH2        -10.7510   -11.7100   -16.5820 O.3    5304  TIP5154    -0.4105
 34823 H1         -10.3210   -11.1840   -17.2570 H      5304  TIP5154     0.2052
 34824 H2         -10.0340   -12.0280   -16.0330 H      5304  TIP5154     0.2052
 34825 OH2        -27.9400    -1.9420   -25.9540 O.3    5305  TIP5155    -0.4105
 34826 H1         -27.4830    -2.7460   -26.1990 H      5305  TIP5155     0.2052
 34827 H2         -28.7930    -2.0100   -26.3840 H      5305  TIP5155     0.2052
 34828 OH2        -32.4880   -24.5810    45.8300 O.3    5306  TIP5156    -0.4105
 34829 H1         -31.9120   -25.1590    45.3290 H      5306  TIP5156     0.2052
 34830 H2         -33.3460   -25.0020    45.7860 H      5306  TIP5156     0.2052
 34831 OH2         -8.5000    24.3220    21.1280 O.3    5307  TIP5157    -0.4105
 34832 H1          -8.4440    23.4000    21.3800 H      5307  TIP5157     0.2052
 34833 H2          -7.6130    24.5500    20.8510 H      5307  TIP5157     0.2052
 34834 OH2         11.5410    13.7130    37.8160 O.3    5308  TIP5158    -0.4105
 34835 H1          11.8590    14.6030    37.9710 H      5308  TIP5158     0.2052
 34836 H2          11.3840    13.3590    38.6910 H      5308  TIP5158     0.2052
 34837 OH2         -3.4480    23.1250   -52.3110 O.3    5309  TIP5159    -0.4105
 34838 H1          -4.2610    23.0250   -51.8150 H      5309  TIP5159     0.2052
 34839 H2          -3.2100    24.0460   -52.1970 H      5309  TIP5159     0.2052
 34840 OH2          9.9810     5.6600   -45.0860 O.3    5310  TIP5160    -0.4105
 34841 H1           9.8300     4.9580   -44.4530 H      5310  TIP5160     0.2052
 34842 H2           9.2110     6.2230   -45.0090 H      5310  TIP5160     0.2052
 34843 OH2        -23.3340    22.0220    33.9840 O.3    5311  TIP5161    -0.4105
 34844 H1         -23.2140    22.7260    34.6210 H      5311  TIP5161     0.2052
 34845 H2         -23.6090    21.2690    34.5080 H      5311  TIP5161     0.2052
 34846 OH2         -0.4420   -16.3750    49.0430 O.3    5312  TIP5162    -0.4105
 34847 H1          -0.6250   -17.3120    49.1060 H      5312  TIP5162     0.2052
 34848 H2          -0.5900   -16.1630    48.1220 H      5312  TIP5162     0.2052
 34849 OH2         24.8860    -6.3950   -18.7240 O.3    5313  TIP5163    -0.4105
 34850 H1          25.0970    -6.4830   -17.7950 H      5313  TIP5163     0.2052
 34851 H2          24.9760    -7.2810   -19.0760 H      5313  TIP5163     0.2052
 34852 OH2          7.0360   -28.8140    29.5510 O.3    5314  TIP5164    -0.4105
 34853 H1           6.5740   -28.4460    28.7980 H      5314  TIP5164     0.2052
 34854 H2           7.5090   -28.0720    29.9290 H      5314  TIP5164     0.2052
 34855 OH2        -26.4010   -16.8960   -24.5570 O.3    5315  TIP5165    -0.4105
 34856 H1         -26.2990   -15.9530   -24.6890 H      5315  TIP5165     0.2052
 34857 H2         -25.6860   -17.1340   -23.9670 H      5315  TIP5165     0.2052
 34858 OH2         -4.3180   -20.8820   -18.6090 O.3    5316  TIP5166    -0.4105
 34859 H1          -4.1760   -21.7310   -18.1900 H      5316  TIP5166     0.2052
 34860 H2          -3.4370   -20.5300   -18.7420 H      5316  TIP5166     0.2052
 34861 OH2          1.3130    25.5360   -37.4860 O.3    5317  TIP5167    -0.4105
 34862 H1           0.6310    25.5010   -38.1570 H      5317  TIP5167     0.2052
 34863 H2           0.9600    25.0240   -36.7580 H      5317  TIP5167     0.2052
 34864 OH2        -11.2610   -12.4900   -44.4200 O.3    5318  TIP5168    -0.4105
 34865 H1         -10.8900   -13.0520   -45.1000 H      5318  TIP5168     0.2052
 34866 H2         -10.5040   -12.1950   -43.9130 H      5318  TIP5168     0.2052
 34867 OH2         23.4990     4.0740    43.2500 O.3    5319  TIP5169    -0.4105
 34868 H1          22.8570     4.0870    43.9600 H      5319  TIP5169     0.2052
 34869 H2          23.0000     3.7970    42.4810 H      5319  TIP5169     0.2052
 34870 OH2         -4.6700   -32.5860    15.1570 O.3    5320  TIP5170    -0.4105
 34871 H1          -5.4640   -33.0970    15.0030 H      5320  TIP5170     0.2052
 34872 H2          -3.9540   -33.1840    14.9430 H      5320  TIP5170     0.2052
 34873 OH2         32.3520    -1.2840   -43.1260 O.3    5321  TIP5171    -0.4105
 34874 H1          32.4500    -1.6720   -43.9950 H      5321  TIP5171     0.2052
 34875 H2          32.7250    -0.4060   -43.2110 H      5321  TIP5171     0.2052
 34876 OH2         26.8570    25.3740   -29.4550 O.3    5322  TIP5172    -0.4105
 34877 H1          26.4710    24.4990   -29.4190 H      5322  TIP5172     0.2052
 34878 H2          26.3540    25.8840   -28.8200 H      5322  TIP5172     0.2052
 34879 OH2         18.3860    -2.3870    48.6370 O.3    5323  TIP5173    -0.4105
 34880 H1          19.0480    -3.0100    48.3380 H      5323  TIP5173     0.2052
 34881 H2          18.8250    -1.8780    49.3180 H      5323  TIP5173     0.2052
 34882 OH2         32.5110    27.5690   -28.6690 O.3    5324  TIP5174    -0.4105
 34883 H1          32.8540    27.2020   -29.4840 H      5324  TIP5174     0.2052
 34884 H2          31.8960    26.9090   -28.3480 H      5324  TIP5174     0.2052
 34885 OH2         -6.3200   -15.6790   -37.0310 O.3    5325  TIP5175    -0.4105
 34886 H1          -6.8700   -15.3160   -37.7260 H      5325  TIP5175     0.2052
 34887 H2          -6.9390   -16.0730   -36.4170 H      5325  TIP5175     0.2052
 34888 OH2         32.2060   -18.2300    42.9550 O.3    5326  TIP5176    -0.4105
 34889 H1          32.0590   -18.8880    43.6350 H      5326  TIP5176     0.2052
 34890 H2          31.3480   -18.1090    42.5490 H      5326  TIP5176     0.2052
 34891 OH2         29.8860     5.3170   -18.0090 O.3    5327  TIP5177    -0.4105
 34892 H1          28.9570     5.5050   -18.1410 H      5327  TIP5177     0.2052
 34893 H2          30.3310     6.1360   -18.2240 H      5327  TIP5177     0.2052
 34894 OH2         -8.1600    12.2820   -39.2640 O.3    5328  TIP5178    -0.4105
 34895 H1          -7.8620    11.5510   -39.8050 H      5328  TIP5178     0.2052
 34896 H2          -8.8900    12.6610   -39.7530 H      5328  TIP5178     0.2052
 34897 OH2        -13.0960     7.0870   -24.8770 O.3    5329  TIP5179    -0.4105
 34898 H1         -12.8310     7.6330   -25.6180 H      5329  TIP5179     0.2052
 34899 H2         -12.4740     7.3050   -24.1840 H      5329  TIP5179     0.2052
 34900 OH2         20.0570    -3.1230   -52.3600 O.3    5330  TIP5180    -0.4105
 34901 H1          19.5890    -2.9970   -51.5340 H      5330  TIP5180     0.2052
 34902 H2          19.8070    -4.0020   -52.6450 H      5330  TIP5180     0.2052
 34903 OH2         13.1940   -30.8400   -29.1240 O.3    5331  TIP5181    -0.4105
 34904 H1          12.8960   -31.7440   -29.2200 H      5331  TIP5181     0.2052
 34905 H2          14.0090   -30.8020   -29.6250 H      5331  TIP5181     0.2052
 34906 OH2        -22.7330    24.3450   -41.4430 O.3    5332  TIP5182    -0.4105
 34907 H1         -22.7500    23.4910   -41.0110 H      5332  TIP5182     0.2052
 34908 H2         -21.8470    24.4190   -41.7950 H      5332  TIP5182     0.2052
 34909 OH2         31.7920     4.2840    26.4330 O.3    5333  TIP5183    -0.4105
 34910 H1          32.0540     5.2020    26.5060 H      5333  TIP5183     0.2052
 34911 H2          30.8370     4.3130    26.3640 H      5333  TIP5183     0.2052
 34912 OH2         28.8450    25.3600    28.3480 O.3    5334  TIP5184    -0.4105
 34913 H1          28.7930    24.5640    28.8780 H      5334  TIP5184     0.2052
 34914 H2          29.2610    25.0780    27.5330 H      5334  TIP5184     0.2052
 34915 OH2         -7.9080    25.8210    41.5200 O.3    5335  TIP5185    -0.4105
 34916 H1          -8.4600    26.3400    40.9350 H      5335  TIP5185     0.2052
 34917 H2          -8.2560    25.9940    42.3950 H      5335  TIP5185     0.2052
 34918 OH2        -16.6530   -18.8240    35.9340 O.3    5336  TIP5186    -0.4105
 34919 H1         -17.0090   -17.9460    35.8010 H      5336  TIP5186     0.2052
 34920 H2         -15.8460   -18.6830    36.4290 H      5336  TIP5186     0.2052
 34921 OH2         21.1900    -6.2290    23.1950 O.3    5337  TIP5187    -0.4105
 34922 H1          21.4650    -5.3240    23.3460 H      5337  TIP5187     0.2052
 34923 H2          20.2460    -6.2220    23.3540 H      5337  TIP5187     0.2052
 34924 OH2         31.0930   -21.7860    26.4250 O.3    5338  TIP5188    -0.4105
 34925 H1          30.3880   -22.3340    26.7700 H      5338  TIP5188     0.2052
 34926 H2          30.6450   -21.1220    25.9000 H      5338  TIP5188     0.2052
 34927 OH2          8.8320    14.4230    40.1560 O.3    5339  TIP5189    -0.4105
 34928 H1           9.6680    13.9570    40.1710 H      5339  TIP5189     0.2052
 34929 H2           8.8640    14.9980    40.9210 H      5339  TIP5189     0.2052
 34930 OH2         29.8450    15.5410    37.7240 O.3    5340  TIP5190    -0.4105
 34931 H1          30.6890    15.9810    37.8200 H      5340  TIP5190     0.2052
 34932 H2          29.4350    15.6170    38.5860 H      5340  TIP5190     0.2052
 34933 OH2         -5.0780    -7.4830   -38.4620 O.3    5341  TIP5191    -0.4105
 34934 H1          -6.0320    -7.4600   -38.3850 H      5341  TIP5191     0.2052
 34935 H2          -4.8220    -6.5650   -38.5480 H      5341  TIP5191     0.2052
 34936 OH2         18.0180    28.7560   -28.6750 O.3    5342  TIP5192    -0.4105
 34937 H1          18.8890    29.1290   -28.8140 H      5342  TIP5192     0.2052
 34938 H2          17.5180    29.0200   -29.4470 H      5342  TIP5192     0.2052
 34939 OH2         -0.0880   -13.5800   -24.9870 O.3    5343  TIP5193    -0.4105
 34940 H1          -0.2320   -14.1860   -25.7140 H      5343  TIP5193     0.2052
 34941 H2           0.0360   -12.7280   -25.4040 H      5343  TIP5193     0.2052
 34942 OH2         23.1500    -8.8000    39.6420 O.3    5344  TIP5194    -0.4105
 34943 H1          22.6870    -8.4890    40.4200 H      5344  TIP5194     0.2052
 34944 H2          23.5890    -8.0220    39.2970 H      5344  TIP5194     0.2052
 34945 OH2        -11.7310   -26.5970    21.5830 O.3    5345  TIP5195    -0.4105
 34946 H1         -12.0080   -27.4940    21.7680 H      5345  TIP5195     0.2052
 34947 H2         -11.0360   -26.6910    20.9300 H      5345  TIP5195     0.2052
 34948 OH2          5.2510    -7.5110    50.4650 O.3    5346  TIP5196    -0.4105
 34949 H1           5.4050    -8.0390    51.2480 H      5346  TIP5196     0.2052
 34950 H2           4.4400    -7.0370    50.6510 H      5346  TIP5196     0.2052
 34951 OH2        -15.6520     0.7320   -34.3060 O.3    5347  TIP5197    -0.4105
 34952 H1         -15.9210     1.2000   -33.5160 H      5347  TIP5197     0.2052
 34953 H2         -15.7200     1.3820   -35.0050 H      5347  TIP5197     0.2052
 34954 OH2        -22.0760    21.9010    30.1490 O.3    5348  TIP5198    -0.4105
 34955 H1         -23.0040    22.1230    30.0790 H      5348  TIP5198     0.2052
 34956 H2         -21.9130    21.3130    29.4120 H      5348  TIP5198     0.2052
 34957 OH2         23.1200    25.9710   -54.4410 O.3    5349  TIP5199    -0.4105
 34958 H1          23.1670    25.6260   -55.3330 H      5349  TIP5199     0.2052
 34959 H2          22.6100    26.7770   -54.5220 H      5349  TIP5199     0.2052
 34960 OH2          3.9620    13.5400   -46.8350 O.3    5350  TIP5200    -0.4105
 34961 H1           4.4960    14.2810   -47.1200 H      5350  TIP5200     0.2052
 34962 H2           3.6220    13.8040   -45.9800 H      5350  TIP5200     0.2052
 34963 OH2         -8.6330   -30.6850   -54.0000 O.3    5351  TIP5201    -0.4105
 34964 H1          -8.9330   -31.0640   -53.1750 H      5351  TIP5201     0.2052
 34965 H2          -8.6430   -31.4160   -54.6180 H      5351  TIP5201     0.2052
 34966 OH2          3.1840     7.3870   -52.7940 O.3    5352  TIP5202    -0.4105
 34967 H1           3.0990     8.2420   -53.2150 H      5352  TIP5202     0.2052
 34968 H2           4.0650     7.3900   -52.4200 H      5352  TIP5202     0.2052
 34969 OH2         12.0380   -12.0960    54.1460 O.3    5353  TIP5203    -0.4105
 34970 H1          11.4900   -11.9700    53.3710 H      5353  TIP5203     0.2052
 34971 H2          11.9700   -11.2700    54.6240 H      5353  TIP5203     0.2052
 34972 OH2        -20.0540    -4.5830    42.9370 O.3    5354  TIP5204    -0.4105
 34973 H1         -20.4650    -5.4470    42.9670 H      5354  TIP5204     0.2052
 34974 H2         -20.1990    -4.2800    42.0400 H      5354  TIP5204     0.2052
 34975 OH2         -7.7500   -29.4290    31.0890 O.3    5355  TIP5205    -0.4105
 34976 H1          -8.1160   -30.1610    30.5910 H      5355  TIP5205     0.2052
 34977 H2          -8.4960   -29.0680    31.5670 H      5355  TIP5205     0.2052
 34978 OH2         18.8750   -27.1500    27.8110 O.3    5356  TIP5206    -0.4105
 34979 H1          18.8120   -26.8610    26.9010 H      5356  TIP5206     0.2052
 34980 H2          19.1980   -28.0490    27.7560 H      5356  TIP5206     0.2052
 34981 OH2          1.4660   -19.2460   -54.6230 O.3    5357  TIP5207    -0.4105
 34982 H1           1.3490   -20.0530   -54.1230 H      5357  TIP5207     0.2052
 34983 H2           1.9110   -18.6520   -54.0190 H      5357  TIP5207     0.2052
 34984 OH2         -1.9620    13.1590   -23.4510 O.3    5358  TIP5208    -0.4105
 34985 H1          -1.6170    13.6110   -22.6800 H      5358  TIP5208     0.2052
 34986 H2          -1.8940    12.2290   -23.2340 H      5358  TIP5208     0.2052
 34987 OH2         23.2250   -20.9390    19.7640 O.3    5359  TIP5209    -0.4105
 34988 H1          23.1900   -21.1460    20.6980 H      5359  TIP5209     0.2052
 34989 H2          22.9400   -20.0260    19.7100 H      5359  TIP5209     0.2052
 34990 OH2         15.2310    29.5840    27.0520 O.3    5360  TIP5210    -0.4105
 34991 H1          15.4590    30.3110    27.6300 H      5360  TIP5210     0.2052
 34992 H2          14.4900    29.1570    27.4830 H      5360  TIP5210     0.2052
 34993 OH2        -10.1290    25.3480    55.5580 O.3    5361  TIP5211    -0.4105
 34994 H1          -9.9070    25.4790    54.6360 H      5361  TIP5211     0.2052
 34995 H2          -9.5350    25.9290    56.0330 H      5361  TIP5211     0.2052
 34996 OH2          0.3790     1.0410   -41.5610 O.3    5362  TIP5212    -0.4105
 34997 H1           0.3090     0.0910   -41.4640 H      5362  TIP5212     0.2052
 34998 H2          -0.3860     1.2860   -42.0810 H      5362  TIP5212     0.2052
 34999 OH2        -26.0620   -32.4080    17.0420 O.3    5363  TIP5213    -0.4105
 35000 H1         -26.3840   -32.7920    16.2260 H      5363  TIP5213     0.2052
 35001 H2         -25.1690   -32.7400    17.1280 H      5363  TIP5213     0.2052
 35002 OH2        -29.8530    15.5990    36.8300 O.3    5364  TIP5214    -0.4105
 35003 H1         -30.6740    16.0660    36.6730 H      5364  TIP5214     0.2052
 35004 H2         -29.1880    16.2870    36.8580 H      5364  TIP5214     0.2052
 35005 OH2         28.6920    17.1330    32.5330 O.3    5365  TIP5215    -0.4105
 35006 H1          28.2510    16.2850    32.6010 H      5365  TIP5215     0.2052
 35007 H2          29.6240    16.9230    32.5870 H      5365  TIP5215     0.2052
 35008 OH2        -21.2790    15.8250   -52.0710 O.3    5366  TIP5216    -0.4105
 35009 H1         -21.5480    16.4630   -52.7320 H      5366  TIP5216     0.2052
 35010 H2         -20.9970    16.3560   -51.3260 H      5366  TIP5216     0.2052
 35011 OH2         -1.0810    21.2390   -32.6670 O.3    5367  TIP5217    -0.4105
 35012 H1          -1.2740    21.1350   -31.7350 H      5367  TIP5217     0.2052
 35013 H2          -0.3900    21.9000   -32.6960 H      5367  TIP5217     0.2052
 35014 OH2         23.1020     7.4630   -54.5480 O.3    5368  TIP5218    -0.4105
 35015 H1          23.0770     6.9840   -53.7200 H      5368  TIP5218     0.2052
 35016 H2          23.9590     7.2540   -54.9200 H      5368  TIP5218     0.2052
 35017 OH2        -25.8100     1.6400   -50.6140 O.3    5369  TIP5219    -0.4105
 35018 H1         -25.4390     1.4550   -51.4760 H      5369  TIP5219     0.2052
 35019 H2         -26.6020     2.1450   -50.7970 H      5369  TIP5219     0.2052
 35020 OH2         17.3170     4.0440    17.8400 O.3    5370  TIP5220    -0.4105
 35021 H1          17.1400     3.1050    17.8970 H      5370  TIP5220     0.2052
 35022 H2          18.0830     4.1780    18.3980 H      5370  TIP5220     0.2052
 35023 OH2         -0.4070    -9.2810    38.4760 O.3    5371  TIP5221    -0.4105
 35024 H1          -0.9740    -8.9900    39.1900 H      5371  TIP5221     0.2052
 35025 H2          -0.1790   -10.1820    38.7030 H      5371  TIP5221     0.2052
 35026 OH2        -29.0250   -19.4010   -33.5950 O.3    5372  TIP5222    -0.4105
 35027 H1         -28.3250   -20.0520   -33.5360 H      5372  TIP5222     0.2052
 35028 H2         -29.7970   -19.8480   -33.2470 H      5372  TIP5222     0.2052
 35029 OH2        -25.6950    18.9750    51.4310 O.3    5373  TIP5223    -0.4105
 35030 H1         -25.6300    18.7320    50.5070 H      5373  TIP5223     0.2052
 35031 H2         -24.8460    19.3680    51.6360 H      5373  TIP5223     0.2052
 35032 OH2         14.9880   -20.9240    18.3910 O.3    5374  TIP5224    -0.4105
 35033 H1          14.1100   -20.5490    18.3220 H      5374  TIP5224     0.2052
 35034 H2          14.9610   -21.7010    17.8320 H      5374  TIP5224     0.2052
 35035 OH2          3.0560   -20.6090   -51.2440 O.3    5375  TIP5225    -0.4105
 35036 H1           2.2670   -20.4700   -50.7200 H      5375  TIP5225     0.2052
 35037 H2           3.7140   -20.0400   -50.8440 H      5375  TIP5225     0.2052
 35038 OH2        -22.9800     6.7190   -51.8090 O.3    5376  TIP5226    -0.4105
 35039 H1         -22.4090     7.4180   -52.1270 H      5376  TIP5226     0.2052
 35040 H2         -23.8300     6.9020   -52.2100 H      5376  TIP5226     0.2052
 35041 OH2        -23.5710   -16.7100   -49.1410 O.3    5377  TIP5227    -0.4105
 35042 H1         -22.8410   -16.1010   -49.0280 H      5377  TIP5227     0.2052
 35043 H2         -23.8770   -16.8850   -48.2510 H      5377  TIP5227     0.2052
 35044 OH2          1.9160    -4.2240   -17.5890 O.3    5378  TIP5228    -0.4105
 35045 H1           2.2890    -5.1010   -17.5030 H      5378  TIP5228     0.2052
 35046 H2           1.0240    -4.3070   -17.2520 H      5378  TIP5228     0.2052
 35047 OH2         15.2080    -3.7370   -22.4910 O.3    5379  TIP5229    -0.4105
 35048 H1          14.5050    -4.3350   -22.7450 H      5379  TIP5229     0.2052
 35049 H2          15.2910    -3.1370   -23.2320 H      5379  TIP5229     0.2052
 35050 OH2          1.5730    32.4780    37.9950 O.3    5380  TIP5230    -0.4105
 35051 H1           1.9260    31.5980    38.1270 H      5380  TIP5230     0.2052
 35052 H2           2.2520    32.9370    37.5000 H      5380  TIP5230     0.2052
 35053 OH2          6.3390     4.7550    46.8860 O.3    5381  TIP5231    -0.4105
 35054 H1           7.1240     4.3840    47.2890 H      5381  TIP5231     0.2052
 35055 H2           6.6720     5.3750    46.2370 H      5381  TIP5231     0.2052
 35056 OH2         -8.9940    31.3300   -52.7750 O.3    5382  TIP5232    -0.4105
 35057 H1          -9.1040    30.6790   -52.0810 H      5382  TIP5232     0.2052
 35058 H2          -9.2270    32.1620   -52.3630 H      5382  TIP5232     0.2052
 35059 OH2         -8.6550    24.3280    50.7990 O.3    5383  TIP5233    -0.4105
 35060 H1          -9.4920    24.2640    50.3380 H      5383  TIP5233     0.2052
 35061 H2          -8.1740    23.5440    50.5320 H      5383  TIP5233     0.2052
 35062 OH2         30.8050     4.1640   -20.5450 O.3    5384  TIP5234    -0.4105
 35063 H1          30.6760     5.1010   -20.6920 H      5384  TIP5234     0.2052
 35064 H2          29.9260     3.7890   -20.6010 H      5384  TIP5234     0.2052
 35065 OH2         29.7840    -6.3680   -29.9640 O.3    5385  TIP5235    -0.4105
 35066 H1          29.2720    -6.3220   -30.7720 H      5385  TIP5235     0.2052
 35067 H2          30.6650    -6.0970   -30.2230 H      5385  TIP5235     0.2052
 35068 OH2         -6.8710    13.5260    34.1770 O.3    5386  TIP5236    -0.4105
 35069 H1          -6.2170    14.0410    33.7050 H      5386  TIP5236     0.2052
 35070 H2          -6.6830    12.6190    33.9330 H      5386  TIP5236     0.2052
 35071 OH2         -6.7760   -18.1140   -32.7470 O.3    5387  TIP5237    -0.4105
 35072 H1          -6.8730   -18.5410   -31.8960 H      5387  TIP5237     0.2052
 35073 H2          -6.4570   -18.8060   -33.3270 H      5387  TIP5237     0.2052
 35074 OH2          3.0600   -30.9280    35.4730 O.3    5388  TIP5238    -0.4105
 35075 H1           2.1750   -30.5910    35.6150 H      5388  TIP5238     0.2052
 35076 H2           3.5780   -30.1550    35.2480 H      5388  TIP5238     0.2052
 35077 OH2         16.1140    13.2740    45.6940 O.3    5389  TIP5239    -0.4105
 35078 H1          16.4130    13.8580    46.3910 H      5389  TIP5239     0.2052
 35079 H2          16.8940    12.7780    45.4460 H      5389  TIP5239     0.2052
 35080 OH2        -22.1290    25.4790   -25.5960 O.3    5390  TIP5240    -0.4105
 35081 H1         -22.9030    25.9780   -25.3330 H      5390  TIP5240     0.2052
 35082 H2         -22.1930    24.6600   -25.1040 H      5390  TIP5240     0.2052
 35083 OH2          8.6830   -32.1600    25.7890 O.3    5391  TIP5241    -0.4105
 35084 H1           9.6070   -32.2580    26.0190 H      5391  TIP5241     0.2052
 35085 H2           8.3880   -31.4030    26.2950 H      5391  TIP5241     0.2052
 35086 OH2          5.0370   -28.0580   -53.4440 O.3    5392  TIP5242    -0.4105
 35087 H1           5.7930   -27.5480   -53.7370 H      5392  TIP5242     0.2052
 35088 H2           5.1040   -28.0590   -52.4900 H      5392  TIP5242     0.2052
 35089 OH2         -2.5580    25.0640   -49.7960 O.3    5393  TIP5243    -0.4105
 35090 H1          -1.9450    24.3550   -49.9910 H      5393  TIP5243     0.2052
 35091 H2          -2.6460    25.5390   -50.6220 H      5393  TIP5243     0.2052
 35092 OH2         16.4770     6.6940    55.3480 O.3    5394  TIP5244    -0.4105
 35093 H1          16.6340     7.6130    55.1320 H      5394  TIP5244     0.2052
 35094 H2          16.0810     6.3260    54.5590 H      5394  TIP5244     0.2052
 35095 OH2         16.5540    20.3350    50.8600 O.3    5395  TIP5245    -0.4105
 35096 H1          17.5100    20.3060    50.8040 H      5395  TIP5245     0.2052
 35097 H2          16.3620    20.1550    51.7800 H      5395  TIP5245     0.2052
 35098 OH2        -19.2060   -28.1240    54.1320 O.3    5396  TIP5246    -0.4105
 35099 H1         -18.7470   -28.7250    53.5460 H      5396  TIP5246     0.2052
 35100 H2         -19.8080   -27.6460    53.5620 H      5396  TIP5246     0.2052
 35101 OH2         -1.8620     4.3950    30.2510 O.3    5397  TIP5247    -0.4105
 35102 H1          -1.1260     4.4880    30.8570 H      5397  TIP5247     0.2052
 35103 H2          -1.6330     4.9530    29.5080 H      5397  TIP5247     0.2052
 35104 OH2        -17.6290    -2.1460   -52.8620 O.3    5398  TIP5248    -0.4105
 35105 H1         -18.4450    -1.7260   -52.5900 H      5398  TIP5248     0.2052
 35106 H2         -16.9770    -1.4470   -52.8290 H      5398  TIP5248     0.2052
 35107 OH2        -15.1050    -6.3120   -26.4820 O.3    5399  TIP5249    -0.4105
 35108 H1         -15.1500    -5.3840   -26.7160 H      5399  TIP5249     0.2052
 35109 H2         -15.3030    -6.7740   -27.2970 H      5399  TIP5249     0.2052
 35110 OH2        -25.8610    18.1940   -29.0640 O.3    5400  TIP5250    -0.4105
 35111 H1         -26.7010    17.7730   -28.8810 H      5400  TIP5250     0.2052
 35112 H2         -25.9160    19.0420   -28.6240 H      5400  TIP5250     0.2052
 35113 OH2         22.3150   -11.7790   -29.9800 O.3    5401  TIP5251    -0.4105
 35114 H1          22.6100   -12.6890   -29.9490 H      5401  TIP5251     0.2052
 35115 H2          22.2440   -11.5820   -30.9140 H      5401  TIP5251     0.2052
 35116 OH2         10.4330    19.2580   -39.1480 O.3    5402  TIP5252    -0.4105
 35117 H1          10.9170    18.7590   -39.8060 H      5402  TIP5252     0.2052
 35118 H2           9.9480    19.9120   -39.6520 H      5402  TIP5252     0.2052
 35119 OH2        -31.4140    32.2450    44.1230 O.3    5403  TIP5253    -0.4105
 35120 H1         -31.4550    31.3340    43.8320 H      5403  TIP5253     0.2052
 35121 H2         -30.7060    32.6300    43.6070 H      5403  TIP5253     0.2052
 35122 OH2        -20.0840   -25.5240   -53.5630 O.3    5404  TIP5254    -0.4105
 35123 H1         -19.4370   -25.2600   -54.2160 H      5404  TIP5254     0.2052
 35124 H2         -19.6180   -25.4730   -52.7290 H      5404  TIP5254     0.2052
 35125 OH2         19.7980    -6.3220    31.1240 O.3    5405  TIP5255    -0.4105
 35126 H1          20.7290    -6.4480    31.3050 H      5405  TIP5255     0.2052
 35127 H2          19.4040    -7.1790    31.2850 H      5405  TIP5255     0.2052
 35128 OH2        -25.4190    24.0390    43.1520 O.3    5406  TIP5256    -0.4105
 35129 H1         -25.2760    24.9030    42.7670 H      5406  TIP5256     0.2052
 35130 H2         -25.8550    23.5380    42.4630 H      5406  TIP5256     0.2052
 35131 OH2         15.1340    23.5710   -41.8850 O.3    5407  TIP5257    -0.4105
 35132 H1          14.9960    23.5360   -42.8310 H      5407  TIP5257     0.2052
 35133 H2          14.8930    24.4650   -41.6400 H      5407  TIP5257     0.2052
 35134 OH2        -22.8290    11.9090   -48.7030 O.3    5408  TIP5258    -0.4105
 35135 H1         -23.5580    11.4760   -48.2590 H      5408  TIP5258     0.2052
 35136 H2         -22.8940    11.6160   -49.6120 H      5408  TIP5258     0.2052
 35137 OH2         10.4460    15.4020   -32.3330 O.3    5409  TIP5259    -0.4105
 35138 H1           9.5820    14.9930   -32.2830 H      5409  TIP5259     0.2052
 35139 H2          10.7740    15.1660   -33.2010 H      5409  TIP5259     0.2052
 35140 OH2         -8.0910   -28.2040   -40.9570 O.3    5410  TIP5260    -0.4105
 35141 H1          -8.4430   -27.3360   -41.1540 H      5410  TIP5260     0.2052
 35142 H2          -8.1530   -28.2780   -40.0040 H      5410  TIP5260     0.2052
 35143 OH2          7.3160    23.6690   -45.1060 O.3    5411  TIP5261    -0.4105
 35144 H1           7.1790    23.5110   -46.0400 H      5411  TIP5261     0.2052
 35145 H2           7.2440    22.8030   -44.7030 H      5411  TIP5261     0.2052
 35146 OH2          7.0690     6.6640   -17.7470 O.3    5412  TIP5262    -0.4105
 35147 H1           6.6460     7.4080   -18.1750 H      5412  TIP5262     0.2052
 35148 H2           6.7890     6.7220   -16.8330 H      5412  TIP5262     0.2052
 35149 OH2        -14.3990    33.0160   -37.8720 O.3    5413  TIP5263    -0.4105
 35150 H1         -13.6590    32.6440   -38.3500 H      5413  TIP5263     0.2052
 35151 H2         -15.1100    33.0430   -38.5120 H      5413  TIP5263     0.2052
 35152 OH2         -1.8470     5.7650   -37.0150 O.3    5414  TIP5264    -0.4105
 35153 H1          -1.3080     6.0370   -36.2720 H      5414  TIP5264     0.2052
 35154 H2          -1.7370     6.4640   -37.6600 H      5414  TIP5264     0.2052
 35155 OH2         22.2760    21.2370   -47.8610 O.3    5415  TIP5265    -0.4105
 35156 H1          23.2230    21.1240   -47.9500 H      5415  TIP5265     0.2052
 35157 H2          21.9780    21.4640   -48.7420 H      5415  TIP5265     0.2052
 35158 OH2         19.9860   -14.6690   -33.9360 O.3    5416  TIP5266    -0.4105
 35159 H1          19.3070   -14.5080   -34.5900 H      5416  TIP5266     0.2052
 35160 H2          20.5450   -13.8930   -33.9740 H      5416  TIP5266     0.2052
 35161 OH2         -2.3090    -5.4050   -25.0190 O.3    5417  TIP5267    -0.4105
 35162 H1          -1.5600    -5.1590   -25.5610 H      5417  TIP5267     0.2052
 35163 H2          -2.4930    -6.3130   -25.2610 H      5417  TIP5267     0.2052
 35164 OH2          0.8520   -14.1630   -21.3820 O.3    5418  TIP5268    -0.4105
 35165 H1           0.7020   -14.1960   -20.4370 H      5418  TIP5268     0.2052
 35166 H2           0.0390   -14.4920   -21.7650 H      5418  TIP5268     0.2052
 35167 OH2          7.0860   -33.0080    21.8180 O.3    5419  TIP5269    -0.4105
 35168 H1           7.0300   -32.3480    21.1270 H      5419  TIP5269     0.2052
 35169 H2           6.7240   -33.8010    21.4220 H      5419  TIP5269     0.2052
 35170 OH2          4.6800   -26.2780    25.9370 O.3    5420  TIP5270    -0.4105
 35171 H1           4.1420   -25.5360    25.6590 H      5420  TIP5270     0.2052
 35172 H2           4.6520   -26.8850    25.1980 H      5420  TIP5270     0.2052
 35173 OH2         11.8590   -22.8200   -37.8940 O.3    5421  TIP5271    -0.4105
 35174 H1          11.7150   -23.2600   -38.7320 H      5421  TIP5271     0.2052
 35175 H2          12.7990   -22.6380   -37.8770 H      5421  TIP5271     0.2052
 35176 OH2         11.3990    26.4810   -36.5330 O.3    5422  TIP5272    -0.4105
 35177 H1          11.8990    26.4390   -37.3490 H      5422  TIP5272     0.2052
 35178 H2          10.5020    26.6640   -36.8120 H      5422  TIP5272     0.2052
 35179 OH2         10.1120    27.4700    38.7930 O.3    5423  TIP5273    -0.4105
 35180 H1           9.7670    28.0730    38.1340 H      5423  TIP5273     0.2052
 35181 H2          10.9560    27.1880    38.4420 H      5423  TIP5273     0.2052
 35182 OH2        -32.7380   -30.8730    19.0220 O.3    5424  TIP5274    -0.4105
 35183 H1         -32.4270   -31.0720    18.1390 H      5424  TIP5274     0.2052
 35184 H2         -32.5850   -29.9340    19.1240 H      5424  TIP5274     0.2052
 35185 OH2         29.3900   -28.0800    51.8100 O.3    5425  TIP5275    -0.4105
 35186 H1          28.7740   -27.3700    51.6300 H      5425  TIP5275     0.2052
 35187 H2          28.9550   -28.6130    52.4750 H      5425  TIP5275     0.2052
 35188 OH2         -3.7910   -21.7440   -55.5560 O.3    5426  TIP5276    -0.4105
 35189 H1          -3.9560   -22.6850   -55.6170 H      5426  TIP5276     0.2052
 35190 H2          -3.6950   -21.4580   -56.4640 H      5426  TIP5276     0.2052
 35191 OH2          7.7680    17.3040   -37.4590 O.3    5427  TIP5277    -0.4105
 35192 H1           7.5730    18.2230   -37.2800 H      5427  TIP5277     0.2052
 35193 H2           7.9880    17.2820   -38.3900 H      5427  TIP5277     0.2052
 35194 OH2          8.4920   -21.9260    34.5450 O.3    5428  TIP5278    -0.4105
 35195 H1           8.9110   -21.8270    35.4000 H      5428  TIP5278     0.2052
 35196 H2           8.3840   -22.8710    34.4380 H      5428  TIP5278     0.2052
 35197 OH2         13.1060   -13.5050    42.7210 O.3    5429  TIP5279    -0.4105
 35198 H1          14.0280   -13.2660    42.8260 H      5429  TIP5279     0.2052
 35199 H2          12.7740   -12.8910    42.0660 H      5429  TIP5279     0.2052
 35200 OH2        -27.8550    32.5840    54.8640 O.3    5430  TIP5280    -0.4105
 35201 H1         -28.1340    31.9360    54.2160 H      5430  TIP5280     0.2052
 35202 H2         -28.5850    32.6360    55.4810 H      5430  TIP5280     0.2052
 35203 OH2        -32.3060    14.1580    33.6820 O.3    5431  TIP5281    -0.4105
 35204 H1         -32.7660    14.5040    34.4470 H      5431  TIP5281     0.2052
 35205 H2         -31.5190    14.6990    33.6100 H      5431  TIP5281     0.2052
 35206 OH2         30.2680   -19.6220    49.4860 O.3    5432  TIP5282    -0.4105
 35207 H1          30.0890   -19.3920    48.5740 H      5432  TIP5282     0.2052
 35208 H2          29.8610   -20.4810    49.6010 H      5432  TIP5282     0.2052
 35209 OH2        -15.7600    22.3080   -38.4100 O.3    5433  TIP5283    -0.4105
 35210 H1         -15.2530    23.0640   -38.7070 H      5433  TIP5283     0.2052
 35211 H2         -16.6670    22.6140   -38.4080 H      5433  TIP5283     0.2052
 35212 OH2        -24.4040     5.5290   -49.3020 O.3    5434  TIP5284    -0.4105
 35213 H1         -24.1910     4.7550   -49.8230 H      5434  TIP5284     0.2052
 35214 H2         -23.9800     6.2530   -49.7640 H      5434  TIP5284     0.2052
 35215 OH2        -15.7840     2.6970    54.3200 O.3    5435  TIP5285    -0.4105
 35216 H1         -15.4390     3.2380    53.6100 H      5435  TIP5285     0.2052
 35217 H2         -16.2120     1.9640    53.8770 H      5435  TIP5285     0.2052
 35218 OH2        -28.2420     7.7010    36.2880 O.3    5436  TIP5286    -0.4105
 35219 H1         -28.9360     8.1290    35.7860 H      5436  TIP5286     0.2052
 35220 H2         -27.6000     7.4330    35.6310 H      5436  TIP5286     0.2052
 35221 OH2        -10.0830    15.9600   -32.8090 O.3    5437  TIP5287    -0.4105
 35222 H1         -10.3030    16.6740   -33.4080 H      5437  TIP5287     0.2052
 35223 H2          -9.6000    15.3350   -33.3490 H      5437  TIP5287     0.2052
 35224 OH2          5.0580    10.1920   -14.4570 O.3    5438  TIP5288    -0.4105
 35225 H1           4.8520    10.8610   -13.8050 H      5438  TIP5288     0.2052
 35226 H2           4.9350    10.6310   -15.2990 H      5438  TIP5288     0.2052
 35227 OH2        -22.8900   -21.0410    49.7410 O.3    5439  TIP5289    -0.4105
 35228 H1         -22.9650   -20.3910    50.4400 H      5439  TIP5289     0.2052
 35229 H2         -23.7780   -21.3830    49.6360 H      5439  TIP5289     0.2052
 35230 OH2         14.5810    33.0160    29.4560 O.3    5440  TIP5290    -0.4105
 35231 H1          14.3850    32.2960    30.0550 H      5440  TIP5290     0.2052
 35232 H2          14.7790    33.7570    30.0290 H      5440  TIP5290     0.2052
 35233 OH2        -24.2280    24.9130    22.1160 O.3    5441  TIP5291    -0.4105
 35234 H1         -25.1070    24.6030    21.9000 H      5441  TIP5291     0.2052
 35235 H2         -24.3340    25.8540    22.2560 H      5441  TIP5291     0.2052
 35236 OH2         24.1570    -3.4630    37.8750 O.3    5442  TIP5292    -0.4105
 35237 H1          24.5790    -3.0070    37.1460 H      5442  TIP5292     0.2052
 35238 H2          24.8710    -3.6540    38.4840 H      5442  TIP5292     0.2052
 35239 OH2         22.6960    12.6910    55.0780 O.3    5443  TIP5293    -0.4105
 35240 H1          23.2560    12.5190    54.3210 H      5443  TIP5293     0.2052
 35241 H2          22.6140    11.8430    55.5140 H      5443  TIP5293     0.2052
 35242 OH2        -28.4470    -5.1410    53.2860 O.3    5444  TIP5294    -0.4105
 35243 H1         -29.0800    -4.8900    53.9590 H      5444  TIP5294     0.2052
 35244 H2         -28.6560    -4.5800    52.5390 H      5444  TIP5294     0.2052
 35245 OH2        -12.3020   -23.2220   -25.3210 O.3    5445  TIP5295    -0.4105
 35246 H1         -11.3940   -22.9620   -25.1610 H      5445  TIP5295     0.2052
 35247 H2         -12.2520   -23.8210   -26.0660 H      5445  TIP5295     0.2052
 35248 OH2         11.0680    12.7370    40.2150 O.3    5446  TIP5296    -0.4105
 35249 H1          11.6330    13.0060    40.9390 H      5446  TIP5296     0.2052
 35250 H2          10.6080    11.9640    40.5420 H      5446  TIP5296     0.2052
 35251 OH2         20.1260    29.1100   -52.2540 O.3    5447  TIP5297    -0.4105
 35252 H1          20.9200    28.9990   -51.7320 H      5447  TIP5297     0.2052
 35253 H2          20.0820    30.0500   -52.4270 H      5447  TIP5297     0.2052
 35254 OH2          8.1090    22.2360   -52.4230 O.3    5448  TIP5298    -0.4105
 35255 H1           8.1510    21.5680   -51.7390 H      5448  TIP5298     0.2052
 35256 H2           7.6990    22.9900   -51.9980 H      5448  TIP5298     0.2052
 35257 OH2        -23.7730   -15.0120   -28.6430 O.3    5449  TIP5299    -0.4105
 35258 H1         -23.8060   -15.1900   -27.7030 H      5449  TIP5299     0.2052
 35259 H2         -24.5660   -15.4190   -28.9920 H      5449  TIP5299     0.2052
 35260 OH2         21.3870   -29.9030    43.3580 O.3    5450  TIP5300    -0.4105
 35261 H1          21.5060   -29.7090    44.2880 H      5450  TIP5300     0.2052
 35262 H2          20.4500   -29.7820    43.2060 H      5450  TIP5300     0.2052
 35263 OH2          6.8370   -19.0120    41.8680 O.3    5451  TIP5301    -0.4105
 35264 H1           7.0590   -18.6780    42.7370 H      5451  TIP5301     0.2052
 35265 H2           6.4480   -19.8710    42.0340 H      5451  TIP5301     0.2052
 35266 OH2         12.2000   -10.3200    43.9780 O.3    5452  TIP5302    -0.4105
 35267 H1          12.9800   -10.3830    44.5300 H      5452  TIP5302     0.2052
 35268 H2          12.1410    -9.3920    43.7500 H      5452  TIP5302     0.2052
 35269 OH2        -24.9760     3.2880   -39.6320 O.3    5453  TIP5303    -0.4105
 35270 H1         -24.1560     2.8530   -39.3960 H      5453  TIP5303     0.2052
 35271 H2         -25.0210     3.2150   -40.5850 H      5453  TIP5303     0.2052
 35272 OH2        -28.9430    22.9790   -44.3790 O.3    5454  TIP5304    -0.4105
 35273 H1         -29.7740    23.2170   -43.9670 H      5454  TIP5304     0.2052
 35274 H2         -28.8790    22.0310   -44.2600 H      5454  TIP5304     0.2052
 35275 OH2        -27.9040    -8.7560    21.6410 O.3    5455  TIP5305    -0.4105
 35276 H1         -27.4020    -9.4390    22.0850 H      5455  TIP5305     0.2052
 35277 H2         -27.2620    -8.3020    21.0950 H      5455  TIP5305     0.2052
 35278 OH2          9.3980    27.8440   -30.3890 O.3    5456  TIP5306    -0.4105
 35279 H1          10.3500    27.8460   -30.4880 H      5456  TIP5306     0.2052
 35280 H2           9.2550    27.8380   -29.4430 H      5456  TIP5306     0.2052
 35281 OH2         -2.4740    -8.2330    49.6610 O.3    5457  TIP5307    -0.4105
 35282 H1          -3.0180    -7.6320    49.1520 H      5457  TIP5307     0.2052
 35283 H2          -3.0600    -8.9560    49.8840 H      5457  TIP5307     0.2052
 35284 OH2        -15.7920    28.7020    46.8700 O.3    5458  TIP5308    -0.4105
 35285 H1         -16.1440    29.4760    47.3110 H      5458  TIP5308     0.2052
 35286 H2         -15.4130    28.1760    47.5740 H      5458  TIP5308     0.2052
 35287 OH2        -11.9330    10.9790   -37.1220 O.3    5459  TIP5309    -0.4105
 35288 H1         -12.3540    11.2270   -37.9450 H      5459  TIP5309     0.2052
 35289 H2         -11.1370    11.5100   -37.0900 H      5459  TIP5309     0.2052
 35290 OH2         12.0950    20.2160    22.8850 O.3    5460  TIP5310    -0.4105
 35291 H1          12.3900    19.3190    23.0440 H      5460  TIP5310     0.2052
 35292 H2          11.6090    20.1670    22.0620 H      5460  TIP5310     0.2052
 35293 OH2         -5.8460     2.6170    34.4470 O.3    5461  TIP5311    -0.4105
 35294 H1          -5.6670     2.0070    35.1630 H      5461  TIP5311     0.2052
 35295 H2          -5.0180     3.0760    34.3110 H      5461  TIP5311     0.2052
 35296 OH2         12.2230    16.3000    37.7290 O.3    5462  TIP5312    -0.4105
 35297 H1          13.1360    16.3940    37.4550 H      5462  TIP5312     0.2052
 35298 H2          11.9150    17.1980    37.8480 H      5462  TIP5312     0.2052
 35299 OH2         10.8140    -9.7500   -41.8800 O.3    5463  TIP5313    -0.4105
 35300 H1          11.2940    -8.9230   -41.9290 H      5463  TIP5313     0.2052
 35301 H2           9.9070    -9.5120   -42.0700 H      5463  TIP5313     0.2052
 35302 OH2         19.6770     7.0270    31.0210 O.3    5464  TIP5314    -0.4105
 35303 H1          19.9600     6.6070    30.2090 H      5464  TIP5314     0.2052
 35304 H2          20.4770     7.1080    31.5410 H      5464  TIP5314     0.2052
 35305 OH2        -23.3240   -19.9980    25.7100 O.3    5465  TIP5315    -0.4105
 35306 H1         -23.7110   -20.3130    24.8940 H      5465  TIP5315     0.2052
 35307 H2         -24.0710   -19.8550    26.2910 H      5465  TIP5315     0.2052
 35308 OH2         33.0110     2.8440   -26.9470 O.3    5466  TIP5316    -0.4105
 35309 H1          32.9720     3.2410   -27.8170 H      5466  TIP5316     0.2052
 35310 H2          32.9390     1.9030   -27.1090 H      5466  TIP5316     0.2052
 35311 OH2        -32.9720   -22.3890    31.7920 O.3    5467  TIP5317    -0.4105
 35312 H1         -33.8140   -22.8430    31.8240 H      5467  TIP5317     0.2052
 35313 H2         -32.7410   -22.3780    30.8630 H      5467  TIP5317     0.2052
 35314 OH2        -22.3920   -31.3840    28.7430 O.3    5468  TIP5318    -0.4105
 35315 H1         -22.5170   -32.0200    29.4470 H      5468  TIP5318     0.2052
 35316 H2         -23.2240   -30.9130    28.6940 H      5468  TIP5318     0.2052
 35317 OH2         19.3810   -30.8550    46.2550 O.3    5469  TIP5319    -0.4105
 35318 H1          18.6610   -31.1480    45.6960 H      5469  TIP5319     0.2052
 35319 H2          19.1360   -29.9660    46.5140 H      5469  TIP5319     0.2052
 35320 OH2        -18.2450     5.2910    53.4540 O.3    5470  TIP5320    -0.4105
 35321 H1         -18.9480     4.9430    52.9060 H      5470  TIP5320     0.2052
 35322 H2         -18.0680     4.5960    54.0880 H      5470  TIP5320     0.2052
 35323 OH2         28.9410   -32.6590   -54.9900 O.3    5471  TIP5321    -0.4105
 35324 H1          29.2680   -31.7650   -54.8920 H      5471  TIP5321     0.2052
 35325 H2          29.2320   -33.1100   -54.1980 H      5471  TIP5321     0.2052
 35326 OH2        -22.9410    18.2250    21.3120 O.3    5472  TIP5322    -0.4105
 35327 H1         -23.3150    17.4990    20.8120 H      5472  TIP5322     0.2052
 35328 H2         -22.0410    17.9540    21.4930 H      5472  TIP5322     0.2052
 35329 OH2        -11.1030    23.8360    45.7190 O.3    5473  TIP5323    -0.4105
 35330 H1         -10.2420    23.7140    46.1190 H      5473  TIP5323     0.2052
 35331 H2         -11.3860    24.7010    46.0160 H      5473  TIP5323     0.2052
 35332 OH2         30.4750     4.7620   -25.6310 O.3    5474  TIP5324    -0.4105
 35333 H1          31.2500     5.2150   -25.2980 H      5474  TIP5324     0.2052
 35334 H2          29.9040     4.6730   -24.8680 H      5474  TIP5324     0.2052
 35335 OH2         26.1080     2.5870   -29.8270 O.3    5475  TIP5325    -0.4105
 35336 H1          26.9370     2.2800   -29.4580 H      5475  TIP5325     0.2052
 35337 H2          25.8730     3.3440   -29.2910 H      5475  TIP5325     0.2052
 35338 OH2          5.9000   -19.3770   -26.9540 O.3    5476  TIP5326    -0.4105
 35339 H1           6.2010   -19.7040   -27.8020 H      5476  TIP5326     0.2052
 35340 H2           6.7030   -19.1430   -26.4880 H      5476  TIP5326     0.2052
 35341 OH2        -13.8630    22.0860    55.1650 O.3    5477  TIP5327    -0.4105
 35342 H1         -13.9960    21.4600    55.8770 H      5477  TIP5327     0.2052
 35343 H2         -12.9580    22.3790    55.2680 H      5477  TIP5327     0.2052
 35344 OH2          5.4140    21.6880    43.4580 O.3    5478  TIP5328    -0.4105
 35345 H1           5.6260    21.1270    42.7120 H      5478  TIP5328     0.2052
 35346 H2           6.2480    21.8070    43.9130 H      5478  TIP5328     0.2052
 35347 OH2        -26.2460    -9.3160   -17.1880 O.3    5479  TIP5329    -0.4105
 35348 H1         -26.1800    -8.4540   -17.5980 H      5479  TIP5329     0.2052
 35349 H2         -27.1270    -9.6200   -17.4080 H      5479  TIP5329     0.2052
 35350 OH2        -16.3060   -15.4750    33.0650 O.3    5480  TIP5330    -0.4105
 35351 H1         -16.6990   -14.8460    32.4600 H      5480  TIP5330     0.2052
 35352 H2         -16.1770   -16.2650    32.5400 H      5480  TIP5330     0.2052
 35353 OH2        -14.8760   -23.8250   -40.4090 O.3    5481  TIP5331    -0.4105
 35354 H1         -14.8420   -24.6530   -39.9300 H      5481  TIP5331     0.2052
 35355 H2         -13.9650   -23.5360   -40.4540 H      5481  TIP5331     0.2052
 35356 OH2         21.1660    -5.4390   -19.8630 O.3    5482  TIP5332    -0.4105
 35357 H1          21.8960    -4.9140   -20.1910 H      5482  TIP5332     0.2052
 35358 H2          20.3850    -5.0100   -20.2130 H      5482  TIP5332     0.2052
 35359 OH2         -7.6990     3.2130    48.2500 O.3    5483  TIP5333    -0.4105
 35360 H1          -8.0420     3.2290    49.1430 H      5483  TIP5333     0.2052
 35361 H2          -6.8160     3.5750    48.3250 H      5483  TIP5333     0.2052
 35362 OH2          9.8460     8.7690   -34.0940 O.3    5484  TIP5334    -0.4105
 35363 H1           9.6030     8.3250   -34.9070 H      5484  TIP5334     0.2052
 35364 H2           9.0110     9.0000   -33.6880 H      5484  TIP5334     0.2052
 35365 OH2          9.9040    19.4330    52.7370 O.3    5485  TIP5335    -0.4105
 35366 H1          10.3790    18.6800    52.3860 H      5485  TIP5335     0.2052
 35367 H2           9.3980    19.0770    53.4680 H      5485  TIP5335     0.2052
 35368 OH2         -0.0120     9.5010    47.2520 O.3    5486  TIP5336    -0.4105
 35369 H1          -0.1680     8.9990    46.4510 H      5486  TIP5336     0.2052
 35370 H2           0.9190     9.7220    47.2190 H      5486  TIP5336     0.2052
 35371 OH2         -5.8330     5.8850    45.9700 O.3    5487  TIP5337    -0.4105
 35372 H1          -5.2680     6.4780    45.4740 H      5487  TIP5337     0.2052
 35373 H2          -6.5800     6.4260    46.2290 H      5487  TIP5337     0.2052
 35374 OH2         32.1880    22.1930   -51.4350 O.3    5488  TIP5338    -0.4105
 35375 H1          32.9370    22.7780   -51.5540 H      5488  TIP5338     0.2052
 35376 H2          32.1350    21.7020   -52.2550 H      5488  TIP5338     0.2052
 35377 OH2        -25.8430   -24.7120   -28.2600 O.3    5489  TIP5339    -0.4105
 35378 H1         -26.2830   -25.4610   -27.8570 H      5489  TIP5339     0.2052
 35379 H2         -26.3000   -23.9480   -27.9100 H      5489  TIP5339     0.2052
 35380 OH2         20.4700   -27.6340    23.6640 O.3    5490  TIP5340    -0.4105
 35381 H1          20.9360   -27.3130    22.8920 H      5490  TIP5340     0.2052
 35382 H2          20.4830   -28.5870    23.5730 H      5490  TIP5340     0.2052
 35383 OH2         29.3670    18.3840    53.7260 O.3    5491  TIP5341    -0.4105
 35384 H1          29.2400    19.2870    54.0150 H      5491  TIP5341     0.2052
 35385 H2          30.1650    18.1000    54.1710 H      5491  TIP5341     0.2052
 35386 OH2         -2.5670   -26.2510    42.7130 O.3    5492  TIP5342    -0.4105
 35387 H1          -1.6200   -26.3000    42.5870 H      5492  TIP5342     0.2052
 35388 H2          -2.6820   -25.6400    43.4400 H      5492  TIP5342     0.2052
 35389 OH2          6.2550    24.2730    37.2460 O.3    5493  TIP5343    -0.4105
 35390 H1           6.9230    24.8330    36.8500 H      5493  TIP5343     0.2052
 35391 H2           6.6870    23.4260    37.3580 H      5493  TIP5343     0.2052
 35392 OH2         25.0740    -8.6520    16.8510 O.3    5494  TIP5344    -0.4105
 35393 H1          24.1790    -8.8430    17.1300 H      5494  TIP5344     0.2052
 35394 H2          25.5380    -8.4430    17.6620 H      5494  TIP5344     0.2052
 35395 OH2         15.3700    -7.0720   -35.6680 O.3    5495  TIP5345    -0.4105
 35396 H1          15.9420    -7.2490   -36.4150 H      5495  TIP5345     0.2052
 35397 H2          15.4770    -7.8320   -35.0970 H      5495  TIP5345     0.2052
 35398 OH2        -19.0730    19.4740    36.3350 O.3    5496  TIP5346    -0.4105
 35399 H1         -18.4040    20.1050    36.5980 H      5496  TIP5346     0.2052
 35400 H2         -19.0340    18.7900    37.0040 H      5496  TIP5346     0.2052
 35401 OH2         10.5740   -16.1740    33.6200 O.3    5497  TIP5347    -0.4105
 35402 H1          10.2050   -15.3380    33.3350 H      5497  TIP5347     0.2052
 35403 H2          10.5590   -16.1290    34.5760 H      5497  TIP5347     0.2052
 35404 OH2         -0.0400     7.4700    30.4170 O.3    5498  TIP5348    -0.4105
 35405 H1          -0.8930     7.8530    30.6190 H      5498  TIP5348     0.2052
 35406 H2          -0.1080     7.2020    29.5000 H      5498  TIP5348     0.2052
 35407 OH2        -18.6420   -33.0330   -25.1090 O.3    5499  TIP5349    -0.4105
 35408 H1         -18.3790   -33.9530   -25.0840 H      5499  TIP5349     0.2052
 35409 H2         -19.2070   -32.9240   -24.3440 H      5499  TIP5349     0.2052
 35410 OH2         -7.1710   -25.5180    37.7580 O.3    5500  TIP5350    -0.4105
 35411 H1          -7.6330   -25.8340    38.5350 H      5500  TIP5350     0.2052
 35412 H2          -6.8920   -24.6320    37.9880 H      5500  TIP5350     0.2052
 35413 OH2        -13.4090    -7.2450   -22.1310 O.3    5501  TIP5351    -0.4105
 35414 H1         -13.0090    -6.9880   -21.3000 H      5501  TIP5351     0.2052
 35415 H2         -14.1920    -6.6980   -22.1990 H      5501  TIP5351     0.2052
 35416 OH2         22.8710    -7.4200    46.9580 O.3    5502  TIP5352    -0.4105
 35417 H1          23.6790    -7.8930    46.7610 H      5502  TIP5352     0.2052
 35418 H2          23.1410    -6.7180    47.5500 H      5502  TIP5352     0.2052
 35419 OH2          4.7020   -32.6300    44.8110 O.3    5503  TIP5353    -0.4105
 35420 H1           4.1620   -31.8580    44.9820 H      5503  TIP5353     0.2052
 35421 H2           4.0810   -33.2950    44.5140 H      5503  TIP5353     0.2052
 35422 OH2        -10.5900     5.5720    30.9320 O.3    5504  TIP5354    -0.4105
 35423 H1          -9.9980     4.8200    30.9060 H      5504  TIP5354     0.2052
 35424 H2         -11.0810     5.5200    30.1120 H      5504  TIP5354     0.2052
 35425 OH2        -25.7050    32.7130   -39.4780 O.3    5505  TIP5355    -0.4105
 35426 H1         -25.9220    32.9820   -38.5860 H      5505  TIP5355     0.2052
 35427 H2         -26.5110    32.3200   -39.8130 H      5505  TIP5355     0.2052
 35428 OH2         10.3560     6.1970   -31.4200 O.3    5506  TIP5356    -0.4105
 35429 H1          10.5930     7.0990   -31.2040 H      5506  TIP5356     0.2052
 35430 H2          11.1920     5.7350   -31.4760 H      5506  TIP5356     0.2052
 35431 OH2        -26.8190    -4.0450    46.9750 O.3    5507  TIP5357    -0.4105
 35432 H1         -27.5230    -4.6530    46.7490 H      5507  TIP5357     0.2052
 35433 H2         -26.0330    -4.5890    47.0070 H      5507  TIP5357     0.2052
 35434 OH2          0.3490   -27.4190    14.8250 O.3    5508  TIP5358    -0.4105
 35435 H1          -0.2860   -26.8430    14.3990 H      5508  TIP5358     0.2052
 35436 H2           1.1550   -26.9040    14.8600 H      5508  TIP5358     0.2052
 35437 OH2         -3.2510    26.1880    51.2820 O.3    5509  TIP5359    -0.4105
 35438 H1          -3.5710    26.1280    50.3820 H      5509  TIP5359     0.2052
 35439 H2          -2.4610    25.6470    51.2930 H      5509  TIP5359     0.2052
 35440 OH2        -30.8020     1.0060    30.7410 O.3    5510  TIP5360    -0.4105
 35441 H1         -30.7450     1.0840    29.7890 H      5510  TIP5360     0.2052
 35442 H2         -29.9070     1.1480    31.0480 H      5510  TIP5360     0.2052
 35443 OH2         18.7270    31.1970    30.1390 O.3    5511  TIP5361    -0.4105
 35444 H1          19.5590    30.7250    30.1560 H      5511  TIP5361     0.2052
 35445 H2          18.8680    31.9520    30.7110 H      5511  TIP5361     0.2052
 35446 OH2        -11.5380     8.7560    28.5500 O.3    5512  TIP5362    -0.4105
 35447 H1         -11.0800     8.0810    28.0510 H      5512  TIP5362     0.2052
 35448 H2         -11.8200     8.3140    29.3510 H      5512  TIP5362     0.2052
 35449 OH2         24.7410   -11.3190    26.8470 O.3    5513  TIP5363    -0.4105
 35450 H1          25.5110   -11.3490    26.2800 H      5513  TIP5363     0.2052
 35451 H2          25.0440   -10.8780    27.6410 H      5513  TIP5363     0.2052
 35452 OH2        -23.0180    20.2300    52.0750 O.3    5514  TIP5364    -0.4105
 35453 H1         -23.2890    20.1930    52.9930 H      5514  TIP5364     0.2052
 35454 H2         -22.1240    20.5720    52.1030 H      5514  TIP5364     0.2052
 35455 OH2        -19.5040   -19.9150    48.9440 O.3    5515  TIP5365    -0.4105
 35456 H1         -19.7850   -20.7460    48.5600 H      5515  TIP5365     0.2052
 35457 H2         -19.0130   -20.1660    49.7270 H      5515  TIP5365     0.2052
 35458 OH2         14.0940    -5.3370    20.9180 O.3    5516  TIP5366    -0.4105
 35459 H1          13.7050    -6.1010    21.3440 H      5516  TIP5366     0.2052
 35460 H2          13.4690    -4.6300    21.0760 H      5516  TIP5366     0.2052
 35461 OH2        -12.9070    23.9630    34.3610 O.3    5517  TIP5367    -0.4105
 35462 H1         -13.4190    23.6630    33.6100 H      5517  TIP5367     0.2052
 35463 H2         -12.0990    24.3070    33.9790 H      5517  TIP5367     0.2052
 35464 OH2         -0.0030   -27.6100   -50.3770 O.3    5518  TIP5368    -0.4105
 35465 H1          -0.4780   -27.2030   -49.6520 H      5518  TIP5368     0.2052
 35466 H2          -0.4020   -27.2390   -51.1640 H      5518  TIP5368     0.2052
 35467 OH2        -18.4640    12.3860   -45.6900 O.3    5519  TIP5369    -0.4105
 35468 H1         -18.7780    13.0370   -46.3170 H      5519  TIP5369     0.2052
 35469 H2         -19.1860    12.2830   -45.0690 H      5519  TIP5369     0.2052
 35470 OH2        -27.9760    -6.0020   -43.2150 O.3    5520  TIP5370    -0.4105
 35471 H1         -27.2000    -5.5800   -42.8460 H      5520  TIP5370     0.2052
 35472 H2         -27.7530    -6.1530   -44.1340 H      5520  TIP5370     0.2052
 35473 OH2        -10.7230    20.6500    23.9220 O.3    5521  TIP5371    -0.4105
 35474 H1         -10.1930    20.1210    23.3260 H      5521  TIP5371     0.2052
 35475 H2         -10.7880    20.1220    24.7180 H      5521  TIP5371     0.2052
 35476 OH2        -13.6720    -7.2970    43.2500 O.3    5522  TIP5372    -0.4105
 35477 H1         -13.6620    -6.3450    43.3450 H      5522  TIP5372     0.2052
 35478 H2         -12.9710    -7.6030    43.8250 H      5522  TIP5372     0.2052
 35479 OH2        -25.2260   -28.5900    22.7600 O.3    5523  TIP5373    -0.4105
 35480 H1         -24.9610   -29.0800    23.5390 H      5523  TIP5373     0.2052
 35481 H2         -24.4180   -28.4810    22.2590 H      5523  TIP5373     0.2052
 35482 OH2        -19.3160    29.5710    42.7170 O.3    5524  TIP5374    -0.4105
 35483 H1         -19.0620    29.5610    43.6400 H      5524  TIP5374     0.2052
 35484 H2         -19.0310    30.4270    42.3990 H      5524  TIP5374     0.2052
 35485 OH2        -28.0790   -12.6510    26.5610 O.3    5525  TIP5375    -0.4105
 35486 H1         -28.9580   -13.0240    26.5010 H      5525  TIP5375     0.2052
 35487 H2         -28.1090   -12.0860    27.3330 H      5525  TIP5375     0.2052
 35488 OH2        -12.0140     7.9010    31.5100 O.3    5526  TIP5376    -0.4105
 35489 H1         -12.8240     7.6430    31.9520 H      5526  TIP5376     0.2052
 35490 H2         -11.5350     7.0810    31.3900 H      5526  TIP5376     0.2052
 35491 OH2         -5.1030    26.2540   -30.3390 O.3    5527  TIP5377    -0.4105
 35492 H1          -5.3770    25.4660   -29.8710 H      5527  TIP5377     0.2052
 35493 H2          -4.3830    25.9640   -30.8980 H      5527  TIP5377     0.2052
 35494 OH2        -20.2880    12.8490    32.1440 O.3    5528  TIP5378    -0.4105
 35495 H1         -20.4020    12.0500    32.6590 H      5528  TIP5378     0.2052
 35496 H2         -19.3710    13.0910    32.2740 H      5528  TIP5378     0.2052
 35497 OH2          7.9520    -7.0800    51.7460 O.3    5529  TIP5379    -0.4105
 35498 H1           7.9990    -7.3470    50.8280 H      5529  TIP5379     0.2052
 35499 H2           7.2860    -7.6520    52.1290 H      5529  TIP5379     0.2052
 35500 OH2         -4.4260    26.5770   -40.2670 O.3    5530  TIP5380    -0.4105
 35501 H1          -5.1800    26.9380   -39.8010 H      5530  TIP5380     0.2052
 35502 H2          -3.6740    27.0530   -39.9140 H      5530  TIP5380     0.2052
 35503 OH2         13.9490     3.7830   -44.7740 O.3    5531  TIP5381    -0.4105
 35504 H1          13.3840     4.1050   -44.0720 H      5531  TIP5381     0.2052
 35505 H2          14.8300     3.7980   -44.3990 H      5531  TIP5381     0.2052
 35506 OH2        -31.1050    15.5170    48.0380 O.3    5532  TIP5382    -0.4105
 35507 H1         -31.5160    15.4770    48.9020 H      5532  TIP5382     0.2052
 35508 H2         -30.6240    14.6930    47.9640 H      5532  TIP5382     0.2052
 35509 OH2        -15.6330    19.8220   -26.3880 O.3    5533  TIP5383    -0.4105
 35510 H1         -15.2660    19.1520   -25.8120 H      5533  TIP5383     0.2052
 35511 H2         -15.3100    20.6490   -26.0300 H      5533  TIP5383     0.2052
 35512 OH2          5.2850    29.0270    49.3830 O.3    5534  TIP5384    -0.4105
 35513 H1           4.9060    28.3200    48.8600 H      5534  TIP5384     0.2052
 35514 H2           4.6900    29.1230    50.1260 H      5534  TIP5384     0.2052
 35515 OH2        -13.3790   -10.7450   -44.2550 O.3    5535  TIP5385    -0.4105
 35516 H1         -12.9760   -11.6080   -44.3580 H      5535  TIP5385     0.2052
 35517 H2         -14.0240   -10.6960   -44.9610 H      5535  TIP5385     0.2052
 35518 OH2         22.7260    18.6820    52.2460 O.3    5536  TIP5386    -0.4105
 35519 H1          22.6240    18.4090    51.3340 H      5536  TIP5386     0.2052
 35520 H2          22.8880    19.6240    52.1970 H      5536  TIP5386     0.2052
 35521 OH2        -23.1610    29.5370   -32.8370 O.3    5537  TIP5387    -0.4105
 35522 H1         -23.0180    28.8620   -33.5000 H      5537  TIP5387     0.2052
 35523 H2         -24.1030    29.5110   -32.6670 H      5537  TIP5387     0.2052
 35524 OH2         -9.3260    28.5120    34.8960 O.3    5538  TIP5388    -0.4105
 35525 H1          -9.4130    28.8830    35.7740 H      5538  TIP5388     0.2052
 35526 H2         -10.1250    28.0000    34.7710 H      5538  TIP5388     0.2052
 35527 OH2        -29.6150    30.4830   -29.6090 O.3    5539  TIP5389    -0.4105
 35528 H1         -30.0860    30.0090   -28.9230 H      5539  TIP5389     0.2052
 35529 H2         -30.2760    31.0520   -30.0040 H      5539  TIP5389     0.2052
 35530 OH2         16.1680     0.5570   -22.6720 O.3    5540  TIP5390    -0.4105
 35531 H1          16.8800     0.5870   -23.3110 H      5540  TIP5390     0.2052
 35532 H2          16.4960     1.0570   -21.9240 H      5540  TIP5390     0.2052
 35533 OH2         20.2560   -29.6060    20.6060 O.3    5541  TIP5391    -0.4105
 35534 H1          20.7530   -28.7890    20.6420 H      5541  TIP5391     0.2052
 35535 H2          20.7990   -30.2390    21.0750 H      5541  TIP5391     0.2052
 35536 OH2        -18.7700    29.1930    49.5880 O.3    5542  TIP5392    -0.4105
 35537 H1         -18.1800    28.4810    49.8360 H      5542  TIP5392     0.2052
 35538 H2         -19.6360    28.7860    49.5530 H      5542  TIP5392     0.2052
 35539 OH2          1.6820     0.4590   -43.8830 O.3    5543  TIP5393    -0.4105
 35540 H1           1.2190     1.1030   -43.3460 H      5543  TIP5393     0.2052
 35541 H2           1.6200     0.8000   -44.7750 H      5543  TIP5393     0.2052
 35542 OH2         14.0910    15.3150   -31.0820 O.3    5544  TIP5394    -0.4105
 35543 H1          14.7980    15.6990   -31.6010 H      5544  TIP5394     0.2052
 35544 H2          13.5310    16.0570   -30.8530 H      5544  TIP5394     0.2052
 35545 OH2        -11.6960    14.4050   -35.2880 O.3    5545  TIP5395    -0.4105
 35546 H1         -10.9550    14.0710   -34.7820 H      5545  TIP5395     0.2052
 35547 H2         -11.4880    15.3270   -35.4390 H      5545  TIP5395     0.2052
 35548 OH2         23.5290   -16.9330    45.3860 O.3    5546  TIP5396    -0.4105
 35549 H1          23.7600   -16.8670    46.3130 H      5546  TIP5396     0.2052
 35550 H2          23.4450   -17.8730    45.2260 H      5546  TIP5396     0.2052
 35551 OH2          9.3640   -19.5430    31.3430 O.3    5547  TIP5397    -0.4105
 35552 H1           9.5270   -19.1990    30.4650 H      5547  TIP5397     0.2052
 35553 H2          10.1770   -19.9870    31.5820 H      5547  TIP5397     0.2052
 35554 OH2         -2.7270    28.1540    47.6660 O.3    5548  TIP5398    -0.4105
 35555 H1          -2.2020    27.3700    47.8280 H      5548  TIP5398     0.2052
 35556 H2          -2.9560    28.1010    46.7380 H      5548  TIP5398     0.2052
 35557 OH2          2.1600   -18.7540   -15.1090 O.3    5549  TIP5399    -0.4105
 35558 H1           2.8270   -19.3940   -15.3570 H      5549  TIP5399     0.2052
 35559 H2           2.2580   -18.0460   -15.7450 H      5549  TIP5399     0.2052
 35560 OH2         32.3660     0.5710    44.4380 O.3    5550  TIP5400    -0.4105
 35561 H1          33.1030     0.3630    43.8630 H      5550  TIP5400     0.2052
 35562 H2          32.5590     0.1070    45.2520 H      5550  TIP5400     0.2052
 35563 OH2         -3.0300   -24.2080    27.6870 O.3    5551  TIP5401    -0.4105
 35564 H1          -3.2370   -23.5830    26.9930 H      5551  TIP5401     0.2052
 35565 H2          -2.1480   -23.9690    27.9710 H      5551  TIP5401     0.2052
 35566 OH2        -26.2270    23.6750    46.0030 O.3    5552  TIP5402    -0.4105
 35567 H1         -26.4880    24.4930    46.4250 H      5552  TIP5402     0.2052
 35568 H2         -26.1000    23.9100    45.0830 H      5552  TIP5402     0.2052
 35569 OH2         -0.4340     1.4450    54.5500 O.3    5553  TIP5403    -0.4105
 35570 H1          -0.1320     0.8260    55.2150 H      5553  TIP5403     0.2052
 35571 H2           0.0360     1.1920    53.7550 H      5553  TIP5403     0.2052
 35572 OH2         -6.6380    19.7970    34.4490 O.3    5554  TIP5404    -0.4105
 35573 H1          -6.4630    20.2940    33.6500 H      5554  TIP5404     0.2052
 35574 H2          -5.7800    19.4730    34.7230 H      5554  TIP5404     0.2052
 35575 OH2        -18.2100   -24.1910    33.2030 O.3    5555  TIP5405    -0.4105
 35576 H1         -18.2960   -23.7320    34.0390 H      5555  TIP5405     0.2052
 35577 H2         -17.3100   -24.5170    33.2000 H      5555  TIP5405     0.2052
 35578 OH2         -0.8010   -26.4170   -53.0490 O.3    5556  TIP5406    -0.4105
 35579 H1          -0.8890   -25.6700   -53.6420 H      5556  TIP5406     0.2052
 35580 H2           0.1070   -26.7000   -53.1540 H      5556  TIP5406     0.2052
 35581 OH2        -12.4330   -30.7010   -40.7570 O.3    5557  TIP5407    -0.4105
 35582 H1         -12.0910   -30.0080   -41.3220 H      5557  TIP5407     0.2052
 35583 H2         -12.8390   -30.2370   -40.0260 H      5557  TIP5407     0.2052
 35584 OH2        -18.3300     9.7510   -46.6130 O.3    5558  TIP5408    -0.4105
 35585 H1         -17.9320     9.1360   -45.9970 H      5558  TIP5408     0.2052
 35586 H2         -18.1740    10.6130   -46.2270 H      5558  TIP5408     0.2052
 35587 OH2         23.1250    -7.3580   -22.9130 O.3    5559  TIP5409    -0.4105
 35588 H1          22.9740    -7.9420   -22.1700 H      5559  TIP5409     0.2052
 35589 H2          22.3090    -6.8650   -23.0010 H      5559  TIP5409     0.2052
 35590 OH2         29.4220   -30.3960   -50.7780 O.3    5560  TIP5410    -0.4105
 35591 H1          29.0690   -29.6470   -50.2970 H      5560  TIP5410     0.2052
 35592 H2          28.7850   -31.0960   -50.6330 H      5560  TIP5410     0.2052
 35593 OH2        -29.7660    13.2280   -53.6140 O.3    5561  TIP5411    -0.4105
 35594 H1         -29.7360    13.5360   -54.5200 H      5561  TIP5411     0.2052
 35595 H2         -28.8540    13.0370   -53.3950 H      5561  TIP5411     0.2052
 35596 OH2        -31.7730    -7.6130    48.5950 O.3    5562  TIP5412    -0.4105
 35597 H1         -32.1470    -8.3830    49.0230 H      5562  TIP5412     0.2052
 35598 H2         -31.8610    -6.9130    49.2410 H      5562  TIP5412     0.2052
 35599 OH2         -4.0890   -32.3800    18.4310 O.3    5563  TIP5413    -0.4105
 35600 H1          -3.6650   -32.6560    17.6180 H      5563  TIP5413     0.2052
 35601 H2          -4.1730   -31.4300    18.3460 H      5563  TIP5413     0.2052
 35602 OH2         26.3460   -13.9060    32.5960 O.3    5564  TIP5414    -0.4105
 35603 H1          27.2190   -14.2890    32.5050 H      5564  TIP5414     0.2052
 35604 H2          26.3730   -13.4420    33.4330 H      5564  TIP5414     0.2052
 35605 OH2        -31.8180     5.5280    42.8470 O.3    5565  TIP5415    -0.4105
 35606 H1         -31.2700     5.4010    42.0730 H      5565  TIP5415     0.2052
 35607 H2         -32.5980     4.9980    42.6790 H      5565  TIP5415     0.2052
 35608 OH2         21.8340   -11.6270   -20.6950 O.3    5566  TIP5416    -0.4105
 35609 H1          21.3490   -12.3880   -20.3760 H      5566  TIP5416     0.2052
 35610 H2          21.1590   -10.9840   -20.9110 H      5566  TIP5416     0.2052
 35611 OH2         27.8250    30.0770    38.2380 O.3    5567  TIP5417    -0.4105
 35612 H1          28.3240    30.7100    37.7210 H      5567  TIP5417     0.2052
 35613 H2          28.1930    30.1450    39.1190 H      5567  TIP5417     0.2052
 35614 OH2        -17.9590     0.8490   -49.1990 O.3    5568  TIP5418    -0.4105
 35615 H1         -18.3400     0.0370   -48.8650 H      5568  TIP5418     0.2052
 35616 H2         -18.2110     1.5130   -48.5570 H      5568  TIP5418     0.2052
 35617 OH2        -32.6030    -2.1570   -17.0140 O.3    5569  TIP5419    -0.4105
 35618 H1         -33.2090    -2.3630   -16.3030 H      5569  TIP5419     0.2052
 35619 H2         -31.7520    -2.4650   -16.7010 H      5569  TIP5419     0.2052
 35620 OH2         13.9660    16.1650    45.4810 O.3    5570  TIP5420    -0.4105
 35621 H1          13.3070    16.8210    45.2530 H      5570  TIP5420     0.2052
 35622 H2          14.6050    16.2090    44.7690 H      5570  TIP5420     0.2052
 35623 OH2        -20.2820    25.7440    27.3790 O.3    5571  TIP5421    -0.4105
 35624 H1         -19.3980    25.4490    27.5970 H      5571  TIP5421     0.2052
 35625 H2         -20.1900    26.1680    26.5260 H      5571  TIP5421     0.2052
 35626 OH2         -2.1100    -0.7910   -20.1570 O.3    5572  TIP5422    -0.4105
 35627 H1          -2.6690    -0.1250   -19.7560 H      5572  TIP5422     0.2052
 35628 H2          -1.7470    -1.2770   -19.4160 H      5572  TIP5422     0.2052
 35629 OH2        -15.6730     3.8360    47.5620 O.3    5573  TIP5423    -0.4105
 35630 H1         -14.9460     3.6930    48.1680 H      5573  TIP5423     0.2052
 35631 H2         -15.6270     3.0980    46.9540 H      5573  TIP5423     0.2052
 35632 OH2        -26.3170    16.6650    47.0020 O.3    5574  TIP5424    -0.4105
 35633 H1         -26.8920    15.9490    46.7340 H      5574  TIP5424     0.2052
 35634 H2         -26.5160    17.3740    46.3900 H      5574  TIP5424     0.2052
 35635 OH2        -25.5570   -18.3600    16.6370 O.3    5575  TIP5425    -0.4105
 35636 H1         -25.2840   -17.4870    16.3580 H      5575  TIP5425     0.2052
 35637 H2         -25.1520   -18.4760    17.4960 H      5575  TIP5425     0.2052
 35638 OH2          7.4390   -22.0510    26.0310 O.3    5576  TIP5426    -0.4105
 35639 H1           6.9140   -21.6810    25.3210 H      5576  TIP5426     0.2052
 35640 H2           7.0970   -22.9380    26.1430 H      5576  TIP5426     0.2052
 35641 OH2         11.3840   -15.6140    41.0020 O.3    5577  TIP5427    -0.4105
 35642 H1          10.9310   -16.4300    40.7910 H      5577  TIP5427     0.2052
 35643 H2          11.7760   -15.3360    40.1740 H      5577  TIP5427     0.2052
 35644 OH2        -16.7490     6.0870    35.3970 O.3    5578  TIP5428    -0.4105
 35645 H1         -16.3930     5.4390    34.7890 H      5578  TIP5428     0.2052
 35646 H2         -17.6970     5.9670    35.3470 H      5578  TIP5428     0.2052
 35647 OH2        -28.2310    15.2400    45.2680 O.3    5579  TIP5429    -0.4105
 35648 H1         -28.8960    15.9290    45.2470 H      5579  TIP5429     0.2052
 35649 H2         -28.3630    14.7540    44.4540 H      5579  TIP5429     0.2052
 35650 OH2         28.2380   -21.9810    43.9450 O.3    5580  TIP5430    -0.4105
 35651 H1          28.5280   -21.9620    44.8570 H      5580  TIP5430     0.2052
 35652 H2          28.7250   -21.2720    43.5240 H      5580  TIP5430     0.2052
 35653 OH2         -4.4320    26.0140   -35.8090 O.3    5581  TIP5431    -0.4105
 35654 H1          -4.5680    26.6610   -35.1170 H      5581  TIP5431     0.2052
 35655 H2          -4.4230    26.5260   -36.6170 H      5581  TIP5431     0.2052
 35656 OH2         -5.4250   -11.9390    30.6540 O.3    5582  TIP5432    -0.4105
 35657 H1          -5.2670   -12.1340    31.5780 H      5582  TIP5432     0.2052
 35658 H2          -5.7510   -12.7610    30.2880 H      5582  TIP5432     0.2052
 35659 OH2         21.2010    -3.2690    22.9080 O.3    5583  TIP5433    -0.4105
 35660 H1          20.5430    -3.4480    22.2360 H      5583  TIP5433     0.2052
 35661 H2          21.5400    -2.4020    22.6860 H      5583  TIP5433     0.2052
 35662 OH2          9.6380    -1.5830   -31.7850 O.3    5584  TIP5434    -0.4105
 35663 H1          10.4710    -1.3490   -32.1940 H      5584  TIP5434     0.2052
 35664 H2           9.0870    -0.8090   -31.9050 H      5584  TIP5434     0.2052
 35665 OH2         28.0420    14.7400   -51.6030 O.3    5585  TIP5435    -0.4105
 35666 H1          28.6980    15.0190   -50.9640 H      5585  TIP5435     0.2052
 35667 H2          28.5490    14.5020   -52.3800 H      5585  TIP5435     0.2052
 35668 OH2         23.4220   -19.6770    45.2280 O.3    5586  TIP5436    -0.4105
 35669 H1          22.8200   -20.1520    45.8010 H      5586  TIP5436     0.2052
 35670 H2          24.0890   -20.3220    44.9930 H      5586  TIP5436     0.2052
 35671 OH2         29.3040    21.5730   -46.9600 O.3    5587  TIP5437    -0.4105
 35672 H1          29.8610    22.0200   -47.5980 H      5587  TIP5437     0.2052
 35673 H2          29.7900    20.7800   -46.7320 H      5587  TIP5437     0.2052
 35674 OH2         18.6160    24.7020    47.6260 O.3    5588  TIP5438    -0.4105
 35675 H1          19.4360    24.3570    47.9780 H      5588  TIP5438     0.2052
 35676 H2          18.2740    23.9950    47.0780 H      5588  TIP5438     0.2052
 35677 OH2        -12.5070   -10.6830   -55.4760 O.3    5589  TIP5439    -0.4105
 35678 H1         -11.5880   -10.9070   -55.3320 H      5589  TIP5439     0.2052
 35679 H2         -12.9830   -11.1890   -54.8170 H      5589  TIP5439     0.2052
 35680 OH2         27.5110   -20.4140    22.7800 O.3    5590  TIP5440    -0.4105
 35681 H1          27.1410   -20.7490    21.9630 H      5590  TIP5440     0.2052
 35682 H2          27.0920   -19.5620    22.9020 H      5590  TIP5440     0.2052
 35683 OH2         30.6980   -17.9250   -18.6490 O.3    5591  TIP5441    -0.4105
 35684 H1          31.4250   -18.0010   -19.2670 H      5591  TIP5441     0.2052
 35685 H2          30.7580   -17.0300   -18.3160 H      5591  TIP5441     0.2052
 35686 OH2          1.5280    -0.8940    29.6900 O.3    5592  TIP5442    -0.4105
 35687 H1           1.3980    -1.5430    30.3820 H      5592  TIP5442     0.2052
 35688 H2           0.8410    -1.0840    29.0510 H      5592  TIP5442     0.2052
 35689 OH2         10.9580    -3.7160    43.2130 O.3    5593  TIP5443    -0.4105
 35690 H1          10.2210    -4.3220    43.2910 H      5593  TIP5443     0.2052
 35691 H2          11.0920    -3.6200    42.2700 H      5593  TIP5443     0.2052
 35692 OH2         23.0490   -14.9140    53.0320 O.3    5594  TIP5444    -0.4105
 35693 H1          22.6930   -14.3770    52.3240 H      5594  TIP5444     0.2052
 35694 H2          23.6030   -15.5580    52.5890 H      5594  TIP5444     0.2052
 35695 OH2         12.6570   -31.1780    43.5110 O.3    5595  TIP5445    -0.4105
 35696 H1          12.7830   -30.8500    44.4010 H      5595  TIP5445     0.2052
 35697 H2          12.3970   -30.4080    43.0050 H      5595  TIP5445     0.2052
 35698 OH2         -8.1320    -4.9610   -48.4090 O.3    5596  TIP5446    -0.4105
 35699 H1          -7.9040    -5.1490   -47.4980 H      5596  TIP5446     0.2052
 35700 H2          -8.3630    -4.0320   -48.4110 H      5596  TIP5446     0.2052
 35701 OH2        -17.5670    -8.2780   -26.7850 O.3    5597  TIP5447    -0.4105
 35702 H1         -18.4510    -8.3750   -27.1390 H      5597  TIP5447     0.2052
 35703 H2         -17.3890    -7.3390   -26.8380 H      5597  TIP5447     0.2052
 35704 OH2        -14.5670    18.2360   -24.2880 O.3    5598  TIP5448    -0.4105
 35705 H1         -15.2160    17.7100   -23.8210 H      5598  TIP5448     0.2052
 35706 H2         -14.1350    18.7480   -23.6040 H      5598  TIP5448     0.2052
 35707 OH2        -11.6820    -5.6340    45.9240 O.3    5599  TIP5449    -0.4105
 35708 H1         -11.9440    -5.0670    45.1990 H      5599  TIP5449     0.2052
 35709 H2         -10.8490    -6.0140    45.6440 H      5599  TIP5449     0.2052
 35710 OH2         22.8330   -18.1880   -23.0940 O.3    5600  TIP5450    -0.4105
 35711 H1          22.8850   -19.1390   -23.0000 H      5600  TIP5450     0.2052
 35712 H2          23.7200   -17.8800   -22.9070 H      5600  TIP5450     0.2052
 35713 OH2          8.9800    -8.6280   -53.9740 O.3    5601  TIP5451    -0.4105
 35714 H1           9.5460    -9.3810   -54.1440 H      5601  TIP5451     0.2052
 35715 H2           9.0010    -8.5210   -53.0230 H      5601  TIP5451     0.2052
 35716 OH2        -12.0800   -14.7830   -20.3500 O.3    5602  TIP5452    -0.4105
 35717 H1         -12.1480   -15.7060   -20.5940 H      5602  TIP5452     0.2052
 35718 H2         -11.1750   -14.6770   -20.0590 H      5602  TIP5452     0.2052
 35719 OH2          2.8630     7.8690    52.9010 O.3    5603  TIP5453    -0.4105
 35720 H1           2.0950     7.7140    52.3520 H      5603  TIP5453     0.2052
 35721 H2           3.5940     7.5100    52.3980 H      5603  TIP5453     0.2052
 35722 OH2         30.3490    32.3910    24.3950 O.3    5604  TIP5454    -0.4105
 35723 H1          29.7160    31.6770    24.3110 H      5604  TIP5454     0.2052
 35724 H2          29.9020    33.1530    24.0260 H      5604  TIP5454     0.2052
 35725 OH2         20.9490   -11.8710   -32.6220 O.3    5605  TIP5455    -0.4105
 35726 H1          21.6050   -12.5580   -32.7470 H      5605  TIP5455     0.2052
 35727 H2          21.2280   -11.1640   -33.2040 H      5605  TIP5455     0.2052
 35728 OH2          8.8460    33.0430    49.0280 O.3    5606  TIP5456    -0.4105
 35729 H1           8.6840    33.6690    48.3220 H      5606  TIP5456     0.2052
 35730 H2           9.5440    33.4420    49.5480 H      5606  TIP5456     0.2052
 35731 OH2        -27.6620   -23.2320   -37.5760 O.3    5607  TIP5457    -0.4105
 35732 H1         -26.9570   -23.6290   -38.0880 H      5607  TIP5457     0.2052
 35733 H2         -28.0130   -22.5450   -38.1430 H      5607  TIP5457     0.2052
 35734 OH2         -4.9800   -14.4810    38.1460 O.3    5608  TIP5458    -0.4105
 35735 H1          -4.1380   -14.9170    38.2770 H      5608  TIP5458     0.2052
 35736 H2          -4.8260   -13.5760    38.4170 H      5608  TIP5458     0.2052
 35737 OH2        -15.0240    23.8780    37.3010 O.3    5609  TIP5459    -0.4105
 35738 H1         -15.7620    23.2770    37.4030 H      5609  TIP5459     0.2052
 35739 H2         -14.3810    23.5800    37.9450 H      5609  TIP5459     0.2052
 35740 OH2         32.3360   -31.6670   -24.1300 O.3    5610  TIP5460    -0.4105
 35741 H1          33.2880   -31.6530   -24.0330 H      5610  TIP5460     0.2052
 35742 H2          32.0030   -31.7220   -23.2340 H      5610  TIP5460     0.2052
 35743 OH2          2.9620     7.7950    29.5640 O.3    5611  TIP5461    -0.4105
 35744 H1           2.0210     7.7850    29.7350 H      5611  TIP5461     0.2052
 35745 H2           3.1790     8.7230    29.4710 H      5611  TIP5461     0.2052
 35746 OH2          3.5620   -31.4170   -32.2580 O.3    5612  TIP5462    -0.4105
 35747 H1           3.2080   -30.5350   -32.1430 H      5612  TIP5462     0.2052
 35748 H2           4.1750   -31.5260   -31.5300 H      5612  TIP5462     0.2052
 35749 OH2        -31.4630   -20.7980   -32.7500 O.3    5613  TIP5463    -0.4105
 35750 H1         -31.9260   -20.9220   -33.5790 H      5613  TIP5463     0.2052
 35751 H2         -31.8340   -21.4600   -32.1670 H      5613  TIP5463     0.2052
 35752 OH2        -31.0590     2.8080   -54.5820 O.3    5614  TIP5464    -0.4105
 35753 H1         -31.8010     3.3270   -54.2720 H      5614  TIP5464     0.2052
 35754 H2         -30.9240     3.0990   -55.4840 H      5614  TIP5464     0.2052
 35755 OH2        -21.9280    27.9280    54.5890 O.3    5615  TIP5465    -0.4105
 35756 H1         -21.6050    28.5570    53.9440 H      5615  TIP5465     0.2052
 35757 H2         -21.1430    27.4740    54.8960 H      5615  TIP5465     0.2052
 35758 OH2        -27.8540     2.0360    24.6050 O.3    5616  TIP5466    -0.4105
 35759 H1         -28.1330     1.2210    24.1870 H      5616  TIP5466     0.2052
 35760 H2         -28.5860     2.6380    24.4700 H      5616  TIP5466     0.2052
 35761 OH2         12.1800    27.2680   -54.0240 O.3    5617  TIP5467    -0.4105
 35762 H1          13.0000    26.8310   -53.7960 H      5617  TIP5467     0.2052
 35763 H2          11.9190    27.7220   -53.2230 H      5617  TIP5467     0.2052
 35764 OH2         19.4250    -3.2200    37.9620 O.3    5618  TIP5468    -0.4105
 35765 H1          19.5240    -2.6880    37.1720 H      5618  TIP5468     0.2052
 35766 H2          20.3210    -3.4490    38.2100 H      5618  TIP5468     0.2052
 35767 OH2          6.4000   -29.7260    50.1320 O.3    5619  TIP5469    -0.4105
 35768 H1           7.0020   -29.1320    49.6860 H      5619  TIP5469     0.2052
 35769 H2           5.6000   -29.2140    50.2510 H      5619  TIP5469     0.2052
 35770 OH2         -3.4230    17.7840   -22.7240 O.3    5620  TIP5470    -0.4105
 35771 H1          -4.2210    18.3120   -22.7120 H      5620  TIP5470     0.2052
 35772 H2          -3.6170    17.0420   -22.1500 H      5620  TIP5470     0.2052
 35773 OH2         -7.1390    -1.1880   -41.2320 O.3    5621  TIP5471    -0.4105
 35774 H1          -6.5290    -1.0530   -41.9570 H      5621  TIP5471     0.2052
 35775 H2          -7.9910    -1.3020   -41.6520 H      5621  TIP5471     0.2052
 35776 OH2        -15.6520   -26.0350   -38.2700 O.3    5622  TIP5472    -0.4105
 35777 H1         -14.8730   -25.7740   -37.7800 H      5622  TIP5472     0.2052
 35778 H2         -15.8820   -26.8940   -37.9150 H      5622  TIP5472     0.2052
 35779 OH2         17.1300     7.4120   -38.6370 O.3    5623  TIP5473    -0.4105
 35780 H1          18.0280     7.7220   -38.7500 H      5623  TIP5473     0.2052
 35781 H2          17.1700     6.8370   -37.8720 H      5623  TIP5473     0.2052
 35782 OH2          0.6240    27.0490    41.0580 O.3    5624  TIP5474    -0.4105
 35783 H1          -0.1030    26.6830    40.5540 H      5624  TIP5474     0.2052
 35784 H2           0.8250    27.8770    40.6210 H      5624  TIP5474     0.2052
 35785 OH2         27.4660    21.5740   -25.3200 O.3    5625  TIP5475    -0.4105
 35786 H1          26.6290    21.4630   -25.7720 H      5625  TIP5475     0.2052
 35787 H2          28.1230    21.5150   -26.0130 H      5625  TIP5475     0.2052
 35788 OH2        -25.4370    -6.9050    38.2640 O.3    5626  TIP5476    -0.4105
 35789 H1         -24.5200    -7.0770    38.4770 H      5626  TIP5476     0.2052
 35790 H2         -25.8880    -6.9310    39.1070 H      5626  TIP5476     0.2052
 35791 OH2        -22.0400    19.4730    18.1020 O.3    5627  TIP5477    -0.4105
 35792 H1         -21.4990    20.2330    18.3120 H      5627  TIP5477     0.2052
 35793 H2         -21.4120    18.7740    17.9210 H      5627  TIP5477     0.2052
 35794 OH2         17.0200     9.6520    33.2040 O.3    5628  TIP5478    -0.4105
 35795 H1          16.6350    10.5000    32.9820 H      5628  TIP5478     0.2052
 35796 H2          16.5860     9.0310    32.6190 H      5628  TIP5478     0.2052
 35797 OH2         19.1650     4.7110    53.4780 O.3    5629  TIP5479    -0.4105
 35798 H1          20.0080     4.3660    53.1860 H      5629  TIP5479     0.2052
 35799 H2          19.1610     4.5660    54.4240 H      5629  TIP5479     0.2052
 35800 OH2         -0.4960    32.2930    42.9800 O.3    5630  TIP5480    -0.4105
 35801 H1          -0.0380    32.4540    42.1550 H      5630  TIP5480     0.2052
 35802 H2          -1.2070    31.6960    42.7470 H      5630  TIP5480     0.2052
 35803 OH2         17.0340     5.8080    28.7100 O.3    5631  TIP5481    -0.4105
 35804 H1          16.2040     5.7420    28.2390 H      5631  TIP5481     0.2052
 35805 H2          17.6350     6.2100    28.0830 H      5631  TIP5481     0.2052
 35806 OH2         -3.7870    16.3950    22.8860 O.3    5632  TIP5482    -0.4105
 35807 H1          -4.5530    16.1360    22.3750 H      5632  TIP5482     0.2052
 35808 H2          -3.0420    16.2060    22.3150 H      5632  TIP5482     0.2052
 35809 OH2         29.0030    30.2610   -38.4390 O.3    5633  TIP5483    -0.4105
 35810 H1          28.5460    29.4690   -38.7230 H      5633  TIP5483     0.2052
 35811 H2          28.3090    30.9080   -38.3180 H      5633  TIP5483     0.2052
 35812 OH2         22.9400   -21.0830    32.4010 O.3    5634  TIP5484    -0.4105
 35813 H1          23.8940   -21.0330    32.4560 H      5634  TIP5484     0.2052
 35814 H2          22.6400   -20.2040    32.6310 H      5634  TIP5484     0.2052
 35815 OH2         30.6590    -9.7770    55.0290 O.3    5635  TIP5485    -0.4105
 35816 H1          29.8880    -9.4090    54.5980 H      5635  TIP5485     0.2052
 35817 H2          30.6390   -10.7070    54.8030 H      5635  TIP5485     0.2052
 35818 OH2         12.2140    23.3450   -49.8920 O.3    5636  TIP5486    -0.4105
 35819 H1          11.5380    23.9810   -49.6560 H      5636  TIP5486     0.2052
 35820 H2          11.8960    22.9460   -50.7010 H      5636  TIP5486     0.2052
 35821 OH2         -9.3940    22.8140    26.3940 O.3    5637  TIP5487    -0.4105
 35822 H1          -9.1120    22.7730    25.4800 H      5637  TIP5487     0.2052
 35823 H2          -8.5790    22.8520    26.8950 H      5637  TIP5487     0.2052
 35824 OH2         31.3390    -6.3240   -49.0590 O.3    5638  TIP5488    -0.4105
 35825 H1          30.6460    -6.0160   -49.6440 H      5638  TIP5488     0.2052
 35826 H2          31.8640    -6.9150   -49.6000 H      5638  TIP5488     0.2052
 35827 OH2        -16.5950   -26.4980    51.6960 O.3    5639  TIP5489    -0.4105
 35828 H1         -17.4170   -26.3390    51.2310 H      5639  TIP5489     0.2052
 35829 H2         -16.3390   -25.6390    52.0310 H      5639  TIP5489     0.2052
 35830 OH2        -26.3720    20.9750    36.0840 O.3    5640  TIP5490    -0.4105
 35831 H1         -26.9800    21.6440    35.7690 H      5640  TIP5490     0.2052
 35832 H2         -25.7850    21.4450    36.6770 H      5640  TIP5490     0.2052
 35833 OH2        -12.5840    12.2840    50.5990 O.3    5641  TIP5491    -0.4105
 35834 H1         -13.1610    12.9610    50.2460 H      5641  TIP5491     0.2052
 35835 H2         -13.1430    11.7750    51.1860 H      5641  TIP5491     0.2052
 35836 OH2        -19.0420   -21.9500   -40.9820 O.3    5642  TIP5492    -0.4105
 35837 H1         -18.4970   -22.3260   -41.6730 H      5642  TIP5492     0.2052
 35838 H2         -18.4420   -21.8140   -40.2490 H      5642  TIP5492     0.2052
 35839 OH2         28.7650    31.6460   -21.7680 O.3    5643  TIP5493    -0.4105
 35840 H1          28.7080    32.1600   -20.9630 H      5643  TIP5493     0.2052
 35841 H2          29.3570    30.9260   -21.5520 H      5643  TIP5493     0.2052
 35842 OH2         26.2310    28.0410   -25.3680 O.3    5644  TIP5494    -0.4105
 35843 H1          27.1660    28.1640   -25.2030 H      5644  TIP5494     0.2052
 35844 H2          25.9020    27.6180   -24.5740 H      5644  TIP5494     0.2052
 35845 OH2        -16.2570    -6.0480    54.8420 O.3    5645  TIP5495    -0.4105
 35846 H1         -15.9270    -5.2100    55.1670 H      5645  TIP5495     0.2052
 35847 H2         -15.6660    -6.2780    54.1250 H      5645  TIP5495     0.2052
 35848 OH2         -0.2010    31.0270   -34.0520 O.3    5646  TIP5496    -0.4105
 35849 H1           0.5240    30.4270   -33.8740 H      5646  TIP5496     0.2052
 35850 H2          -0.5810    30.7070   -34.8700 H      5646  TIP5496     0.2052
 35851 OH2         29.0220   -24.5780    42.7320 O.3    5647  TIP5497    -0.4105
 35852 H1          29.2050   -23.7240    43.1230 H      5647  TIP5497     0.2052
 35853 H2          28.8590   -24.3890    41.8080 H      5647  TIP5497     0.2052
 35854 OH2        -16.1940    29.2380   -49.3260 O.3    5648  TIP5498    -0.4105
 35855 H1         -16.5770    28.4700   -48.9020 H      5648  TIP5498     0.2052
 35856 H2         -16.0020    28.9490   -50.2180 H      5648  TIP5498     0.2052
 35857 OH2         11.4110   -21.9720   -50.5320 O.3    5649  TIP5499    -0.4105
 35858 H1          11.5780   -22.8330   -50.9170 H      5649  TIP5499     0.2052
 35859 H2          10.4590   -21.8800   -50.5550 H      5649  TIP5499     0.2052
 35860 OH2         -1.6920   -24.8610   -19.3710 O.3    5650  TIP5500    -0.4105
 35861 H1          -0.8400   -25.2880   -19.2860 H      5650  TIP5500     0.2052
 35862 H2          -1.7100   -24.2170   -18.6630 H      5650  TIP5500     0.2052
 35863 OH2        -25.6700    24.4720   -41.8080 O.3    5651  TIP5501    -0.4105
 35864 H1         -24.8770    24.7380   -41.3420 H      5651  TIP5501     0.2052
 35865 H2         -25.8340    25.1830   -42.4280 H      5651  TIP5501     0.2052
 35866 OH2        -21.7820   -22.1010    53.3010 O.3    5652  TIP5502    -0.4105
 35867 H1         -21.6730   -22.6080    52.4970 H      5652  TIP5502     0.2052
 35868 H2         -21.0100   -22.3140    53.8250 H      5652  TIP5502     0.2052
 35869 OH2         26.9760    14.6590    49.6940 O.3    5653  TIP5503    -0.4105
 35870 H1          26.4920    15.4150    50.0270 H      5653  TIP5503     0.2052
 35871 H2          26.6710    14.5570    48.7920 H      5653  TIP5503     0.2052
 35872 OH2        -21.9530    23.3260    27.3540 O.3    5654  TIP5504    -0.4105
 35873 H1         -21.4910    24.0690    27.7410 H      5654  TIP5504     0.2052
 35874 H2         -22.3300    23.6720    26.5460 H      5654  TIP5504     0.2052
 35875 OH2         23.4830    16.2630    37.5470 O.3    5655  TIP5505    -0.4105
 35876 H1          22.8510    16.0780    38.2420 H      5655  TIP5505     0.2052
 35877 H2          24.0860    16.8980    37.9340 H      5655  TIP5505     0.2052
 35878 OH2        -27.2900    22.9420    52.8140 O.3    5656  TIP5506    -0.4105
 35879 H1         -27.7890    23.3680    53.5110 H      5656  TIP5506     0.2052
 35880 H2         -26.8020    22.2480    53.2570 H      5656  TIP5506     0.2052
 35881 OH2         24.0850     7.2420   -22.7240 O.3    5657  TIP5507    -0.4105
 35882 H1          24.8780     7.7760   -22.7700 H      5657  TIP5507     0.2052
 35883 H2          23.9370     6.9560   -23.6250 H      5657  TIP5507     0.2052
 35884 OH2         16.5400    21.4450   -44.4660 O.3    5658  TIP5508    -0.4105
 35885 H1          16.0860    21.6780   -45.2760 H      5658  TIP5508     0.2052
 35886 H2          16.1610    20.6040   -44.2110 H      5658  TIP5508     0.2052
 35887 OH2          7.8400   -29.9690    27.1170 O.3    5659  TIP5509    -0.4105
 35888 H1           8.1090   -29.3060    27.7520 H      5659  TIP5509     0.2052
 35889 H2           7.0500   -29.6080    26.7140 H      5659  TIP5509     0.2052
 35890 OH2         17.2880    28.9540    30.3160 O.3    5660  TIP5510    -0.4105
 35891 H1          16.9990    29.1740    31.2020 H      5660  TIP5510     0.2052
 35892 H2          17.6970    29.7560    29.9920 H      5660  TIP5510     0.2052
 35893 OH2         13.1710    26.6230   -38.4140 O.3    5661  TIP5511    -0.4105
 35894 H1          13.9120    26.9050   -37.8780 H      5661  TIP5511     0.2052
 35895 H2          13.5710    26.1560   -39.1490 H      5661  TIP5511     0.2052
 35896 OH2        -19.5710    20.3040    27.9790 O.3    5662  TIP5512    -0.4105
 35897 H1         -19.2600    20.2770    28.8830 H      5662  TIP5512     0.2052
 35898 H2         -19.3220    21.1740    27.6650 H      5662  TIP5512     0.2052
 35899 OH2          1.8750     8.6840   -29.8620 O.3    5663  TIP5513    -0.4105
 35900 H1           1.2690     9.4190   -29.7730 H      5663  TIP5513     0.2052
 35901 H2           2.6340     9.0510   -30.3150 H      5663  TIP5513     0.2052
 35902 OH2          0.1540    -1.9080   -41.2380 O.3    5664  TIP5514    -0.4105
 35903 H1           0.4650    -1.8540   -42.1420 H      5664  TIP5514     0.2052
 35904 H2          -0.7970    -1.9740   -41.3150 H      5664  TIP5514     0.2052
 35905 OH2        -21.1180   -23.8010    51.2660 O.3    5665  TIP5515    -0.4105
 35906 H1         -22.0470   -23.9750    51.1170 H      5665  TIP5515     0.2052
 35907 H2         -20.8320   -23.3340    50.4810 H      5665  TIP5515     0.2052
 35908 OH2        -31.9900   -22.8250   -21.5030 O.3    5666  TIP5516    -0.4105
 35909 H1         -31.9910   -22.0780   -20.9050 H      5666  TIP5516     0.2052
 35910 H2         -32.9060   -22.9270   -21.7620 H      5666  TIP5516     0.2052
 35911 OH2        -20.6240   -23.9610    39.6380 O.3    5667  TIP5517    -0.4105
 35912 H1         -20.9650   -23.5190    38.8600 H      5667  TIP5517     0.2052
 35913 H2         -20.9340   -23.4300    40.3710 H      5667  TIP5517     0.2052
 35914 OH2         21.6310    21.8240   -40.7430 O.3    5668  TIP5518    -0.4105
 35915 H1          22.0700    22.5340   -41.2110 H      5668  TIP5518     0.2052
 35916 H2          21.4030    21.1920   -41.4250 H      5668  TIP5518     0.2052
 35917 OH2        -17.6250   -31.8160    55.3490 O.3    5669  TIP5519    -0.4105
 35918 H1         -18.4690   -31.9270    55.7880 H      5669  TIP5519     0.2052
 35919 H2         -17.8480   -31.7070    54.4250 H      5669  TIP5519     0.2052
 35920 OH2        -24.1910    13.4160   -26.2780 O.3    5670  TIP5520    -0.4105
 35921 H1         -23.8920    13.9500   -27.0150 H      5670  TIP5520     0.2052
 35922 H2         -23.3870    13.1570   -25.8280 H      5670  TIP5520     0.2052
 35923 OH2         -8.2560     7.6390   -51.2350 O.3    5671  TIP5521    -0.4105
 35924 H1          -8.6450     7.6280   -50.3600 H      5671  TIP5521     0.2052
 35925 H2          -8.8930     8.1080   -51.7740 H      5671  TIP5521     0.2052
 35926 OH2        -25.2200    26.3610    41.7640 O.3    5672  TIP5522    -0.4105
 35927 H1         -24.6310    27.0640    42.0400 H      5672  TIP5522     0.2052
 35928 H2         -25.3200    26.4900    40.8210 H      5672  TIP5522     0.2052
 35929 OH2        -21.7140   -10.4070    41.0030 O.3    5673  TIP5523    -0.4105
 35930 H1         -22.5860   -10.2890    40.6250 H      5673  TIP5523     0.2052
 35931 H2         -21.4620   -11.2960    40.7510 H      5673  TIP5523     0.2052
 35932 OH2         21.1650     3.2350   -30.2430 O.3    5674  TIP5524    -0.4105
 35933 H1          21.9400     3.5320   -29.7650 H      5674  TIP5524     0.2052
 35934 H2          20.8090     2.5260   -29.7070 H      5674  TIP5524     0.2052
 35935 OH2          1.0980    10.5350    27.1750 O.3    5675  TIP5525    -0.4105
 35936 H1           0.4190    10.0140    27.6050 H      5675  TIP5525     0.2052
 35937 H2           1.0340    10.2960    26.2500 H      5675  TIP5525     0.2052
 35938 OH2        -17.9040   -15.8270   -47.0030 O.3    5676  TIP5526    -0.4105
 35939 H1         -17.3400   -16.1080   -46.2820 H      5676  TIP5526     0.2052
 35940 H2         -18.6270   -15.3660   -46.5770 H      5676  TIP5526     0.2052
 35941 OH2         24.9340    23.8260   -25.8320 O.3    5677  TIP5527    -0.4105
 35942 H1          24.8440    23.5270   -24.9270 H      5677  TIP5527     0.2052
 35943 H2          25.2820    23.0680   -26.3020 H      5677  TIP5527     0.2052
 35944 OH2        -28.0050    17.2610    21.6550 O.3    5678  TIP5528    -0.4105
 35945 H1         -27.9890    17.7020    20.8060 H      5678  TIP5528     0.2052
 35946 H2         -28.8380    17.5260    22.0480 H      5678  TIP5528     0.2052
 35947 OH2         31.0830   -29.3510    37.0350 O.3    5679  TIP5529    -0.4105
 35948 H1          31.0190   -30.2070    36.6110 H      5679  TIP5529     0.2052
 35949 H2          31.9980   -29.0940    36.9190 H      5679  TIP5529     0.2052
 35950 OH2         22.7960   -14.4960   -38.6890 O.3    5680  TIP5530    -0.4105
 35951 H1          23.6280   -14.3200   -39.1290 H      5680  TIP5530     0.2052
 35952 H2          22.4850   -13.6360   -38.4100 H      5680  TIP5530     0.2052
 35953 OH2        -32.4100    27.3980    41.6640 O.3    5681  TIP5531    -0.4105
 35954 H1         -33.1190    27.0100    41.1520 H      5681  TIP5531     0.2052
 35955 H2         -31.6240    26.9310    41.3790 H      5681  TIP5531     0.2052
 35956 OH2        -10.5180   -23.9700   -20.6020 O.3    5682  TIP5532    -0.4105
 35957 H1         -10.9180   -24.8210   -20.4210 H      5682  TIP5532     0.2052
 35958 H2          -9.5820   -24.1550   -20.6730 H      5682  TIP5532     0.2052
 35959 OH2        -30.6400   -18.8120    28.4470 O.3    5683  TIP5533    -0.4105
 35960 H1         -31.2490   -18.6910    27.7190 H      5683  TIP5533     0.2052
 35961 H2         -30.0840   -19.5430    28.1770 H      5683  TIP5533     0.2052
 35962 OH2         24.1540   -23.7980   -42.3080 O.3    5684  TIP5534    -0.4105
 35963 H1          23.2670   -24.1260   -42.4600 H      5684  TIP5534     0.2052
 35964 H2          24.0300   -22.8890   -42.0360 H      5684  TIP5534     0.2052
 35965 OH2         16.3010    -0.4320    37.0010 O.3    5685  TIP5535    -0.4105
 35966 H1          15.9460     0.4370    36.8150 H      5685  TIP5535     0.2052
 35967 H2          17.0680    -0.5040    36.4330 H      5685  TIP5535     0.2052
 35968 OH2         -6.6620     5.1030   -48.1910 O.3    5686  TIP5536    -0.4105
 35969 H1          -5.8410     4.8790   -48.6300 H      5686  TIP5536     0.2052
 35970 H2          -6.7620     6.0440   -48.3380 H      5686  TIP5536     0.2052
 35971 OH2         -2.2570   -14.7550   -41.8960 O.3    5687  TIP5537    -0.4105
 35972 H1          -1.5920   -14.6770   -42.5810 H      5687  TIP5537     0.2052
 35973 H2          -3.0760   -14.5170   -42.3300 H      5687  TIP5537     0.2052
 35974 OH2         25.3370    20.7610   -52.5650 O.3    5688  TIP5538    -0.4105
 35975 H1          25.6000    19.9770   -52.0830 H      5688  TIP5538     0.2052
 35976 H2          24.3860    20.6850   -52.6470 H      5688  TIP5538     0.2052
 35977 OH2         20.3990    16.7490   -41.7270 O.3    5689  TIP5539    -0.4105
 35978 H1          19.4680    16.8280   -41.5190 H      5689  TIP5539     0.2052
 35979 H2          20.5320    17.3420   -42.4660 H      5689  TIP5539     0.2052
 35980 OH2         -5.8190    11.6330   -26.4060 O.3    5690  TIP5540    -0.4105
 35981 H1          -5.3390    12.0800   -25.7090 H      5690  TIP5540     0.2052
 35982 H2          -6.4850    11.1210   -25.9470 H      5690  TIP5540     0.2052
 35983 OH2          5.9490    19.9230   -27.0340 O.3    5691  TIP5541    -0.4105
 35984 H1           5.1470    19.9480   -27.5570 H      5691  TIP5541     0.2052
 35985 H2           5.7620    19.2930   -26.3380 H      5691  TIP5541     0.2052
 35986 OH2        -27.7980    -6.2150    43.0510 O.3    5692  TIP5542    -0.4105
 35987 H1         -28.3330    -5.4470    42.8540 H      5692  TIP5542     0.2052
 35988 H2         -26.8950    -5.9110    42.9520 H      5692  TIP5542     0.2052
 35989 OH2         -8.6360    16.7470    44.5150 O.3    5693  TIP5543    -0.4105
 35990 H1          -9.4390    16.8040    43.9960 H      5693  TIP5543     0.2052
 35991 H2          -8.7220    15.9270    45.0010 H      5693  TIP5543     0.2052
 35992 OH2         27.5250     1.8130   -33.5330 O.3    5694  TIP5544    -0.4105
 35993 H1          28.4660     1.9760   -33.6070 H      5694  TIP5544     0.2052
 35994 H2          27.2940     1.3670   -34.3470 H      5694  TIP5544     0.2052
 35995 OH2        -13.8060     0.7750    54.5610 O.3    5695  TIP5545    -0.4105
 35996 H1         -14.5240     1.3790    54.7490 H      5695  TIP5545     0.2052
 35997 H2         -13.1570     1.3090    54.1020 H      5695  TIP5545     0.2052
 35998 OH2        -21.2210     1.3410    51.4060 O.3    5696  TIP5546    -0.4105
 35999 H1         -20.6170     1.5640    50.6980 H      5696  TIP5546     0.2052
 36000 H2         -21.2150     0.3840    51.4340 H      5696  TIP5546     0.2052
 36001 OH2          1.2600   -27.2580    34.4730 O.3    5697  TIP5547    -0.4105
 36002 H1           0.8010   -27.4170    33.6470 H      5697  TIP5547     0.2052
 36003 H2           1.8410   -28.0120    34.5730 H      5697  TIP5547     0.2052
 36004 OH2         23.4250    30.0700   -47.7670 O.3    5698  TIP5548    -0.4105
 36005 H1          23.3050    29.4490   -47.0480 H      5698  TIP5548     0.2052
 36006 H2          22.8030    30.7730   -47.5830 H      5698  TIP5548     0.2052
 36007 OH2         -5.7480    -5.5340    55.0170 O.3    5699  TIP5549    -0.4105
 36008 H1          -6.0600    -6.0570    54.2790 H      5699  TIP5549     0.2052
 36009 H2          -6.4650    -4.9280    55.2030 H      5699  TIP5549     0.2052
 36010 OH2        -12.2360    17.2370   -40.3080 O.3    5700  TIP5550    -0.4105
 36011 H1         -11.5690    17.7650   -40.7470 H      5700  TIP5550     0.2052
 36012 H2         -13.0680    17.5980   -40.6150 H      5700  TIP5550     0.2052
 36013 OH2         30.6170     6.6800   -52.2550 O.3    5701  TIP5551    -0.4105
 36014 H1          30.2270     7.0520   -53.0460 H      5701  TIP5551     0.2052
 36015 H2          29.8700     6.3820   -51.7360 H      5701  TIP5551     0.2052
 36016 OH2        -14.3160    10.1610    28.0730 O.3    5702  TIP5552    -0.4105
 36017 H1         -14.8450     9.3870    28.2690 H      5702  TIP5552     0.2052
 36018 H2         -13.4130     9.8780    28.2210 H      5702  TIP5552     0.2052
 36019 OH2        -31.2680     8.5390   -23.7600 O.3    5703  TIP5553    -0.4105
 36020 H1         -31.0400     9.0890   -24.5090 H      5703  TIP5553     0.2052
 36021 H2         -30.5990     8.7360   -23.1050 H      5703  TIP5553     0.2052
 36022 OH2         28.9110   -17.9970   -43.7660 O.3    5704  TIP5554    -0.4105
 36023 H1          28.2910   -17.4020   -44.1880 H      5704  TIP5554     0.2052
 36024 H2          29.1780   -18.5980   -44.4620 H      5704  TIP5554     0.2052
 36025 OH2         17.2730    11.1150   -45.5680 O.3    5705  TIP5555    -0.4105
 36026 H1          17.7090    10.5860   -44.9000 H      5705  TIP5555     0.2052
 36027 H2          17.8070    10.9980   -46.3540 H      5705  TIP5555     0.2052
 36028 OH2         17.5210     4.9320   -53.4600 O.3    5706  TIP5556    -0.4105
 36029 H1          17.0540     5.7270   -53.2030 H      5706  TIP5556     0.2052
 36030 H2          17.0720     4.6350   -54.2520 H      5706  TIP5556     0.2052
 36031 OH2         14.0050     2.0880    47.8020 O.3    5707  TIP5557    -0.4105
 36032 H1          13.7660     2.5660    47.0080 H      5707  TIP5557     0.2052
 36033 H2          14.3560     2.7580    48.3890 H      5707  TIP5557     0.2052
 36034 OH2        -17.6530     4.7930   -38.5030 O.3    5708  TIP5558    -0.4105
 36035 H1         -18.4400     4.3120   -38.2480 H      5708  TIP5558     0.2052
 36036 H2         -17.8820     5.7140   -38.3780 H      5708  TIP5558     0.2052
 36037 OH2         11.3690   -23.8470    42.3290 O.3    5709  TIP5559    -0.4105
 36038 H1          11.6960   -24.6640    41.9520 H      5709  TIP5559     0.2052
 36039 H2          10.6810   -23.5630    41.7260 H      5709  TIP5559     0.2052
 36040 OH2        -23.4430   -21.3270    35.8300 O.3    5710  TIP5560    -0.4105
 36041 H1         -23.2860   -20.4440    35.4950 H      5710  TIP5560     0.2052
 36042 H2         -23.6180   -21.2020    36.7630 H      5710  TIP5560     0.2052
 36043 OH2        -24.4430   -26.1250   -32.4670 O.3    5711  TIP5561    -0.4105
 36044 H1         -24.6700   -26.2120   -33.3930 H      5711  TIP5561     0.2052
 36045 H2         -23.6220   -26.6080   -32.3740 H      5711  TIP5561     0.2052
 36046 OH2          3.3130   -28.0530    49.6810 O.3    5712  TIP5562    -0.4105
 36047 H1           3.0460   -28.2410    48.7810 H      5712  TIP5562     0.2052
 36048 H2           2.5250   -28.2070    50.2020 H      5712  TIP5562     0.2052
 36049 OH2         16.7600    14.7000    47.8220 O.3    5713  TIP5563    -0.4105
 36050 H1          17.6300    15.0870    47.7200 H      5713  TIP5563     0.2052
 36051 H2          16.5380    14.8480    48.7420 H      5713  TIP5563     0.2052
 36052 OH2        -22.1880    20.5560   -54.2010 O.3    5714  TIP5564    -0.4105
 36053 H1         -22.4110    21.1240   -53.4630 H      5714  TIP5564     0.2052
 36054 H2         -21.3530    20.8960   -54.5220 H      5714  TIP5564     0.2052
 36055 OH2         26.0610   -31.7540    32.9020 O.3    5715  TIP5565    -0.4105
 36056 H1          25.4380   -32.4740    32.8070 H      5715  TIP5565     0.2052
 36057 H2          25.6210   -31.1290    33.4790 H      5715  TIP5565     0.2052
 36058 OH2         19.4480    20.6150    31.2090 O.3    5716  TIP5566    -0.4105
 36059 H1          18.5920    20.8520    31.5670 H      5716  TIP5566     0.2052
 36060 H2          19.5750    21.2140    30.4740 H      5716  TIP5566     0.2052
 36061 OH2         32.2820    27.8740   -43.5230 O.3    5717  TIP5567    -0.4105
 36062 H1          32.6300    28.2070   -44.3500 H      5717  TIP5567     0.2052
 36063 H2          32.7930    27.0830   -43.3490 H      5717  TIP5567     0.2052
 36064 OH2         26.2220     3.0140   -51.3910 O.3    5718  TIP5568    -0.4105
 36065 H1          25.5290     2.5420   -51.8530 H      5718  TIP5568     0.2052
 36066 H2          26.3770     3.7940   -51.9230 H      5718  TIP5568     0.2052
 36067 OH2        -30.1340     3.9020    33.8630 O.3    5719  TIP5569    -0.4105
 36068 H1         -30.6640     3.7490    34.6450 H      5719  TIP5569     0.2052
 36069 H2         -29.7750     3.0420    33.6450 H      5719  TIP5569     0.2052
 36070 OH2         -1.9080    27.6190   -24.6650 O.3    5720  TIP5570    -0.4105
 36071 H1          -2.1200    27.8430   -23.7590 H      5720  TIP5570     0.2052
 36072 H2          -1.9280    26.6620   -24.6860 H      5720  TIP5570     0.2052
 36073 OH2        -15.2940    -2.2030    48.7210 O.3    5721  TIP5571    -0.4105
 36074 H1         -14.7280    -2.3040    47.9550 H      5721  TIP5571     0.2052
 36075 H2         -14.7570    -2.4980    49.4560 H      5721  TIP5571     0.2052
 36076 OH2         29.9330    23.3380   -27.2230 O.3    5722  TIP5572    -0.4105
 36077 H1          29.7920    22.3910   -27.2520 H      5722  TIP5572     0.2052
 36078 H2          29.9480    23.6060   -28.1420 H      5722  TIP5572     0.2052
 36079 OH2        -12.8060   -22.0070   -45.0860 O.3    5723  TIP5573    -0.4105
 36080 H1         -12.7010   -21.6220   -44.2160 H      5723  TIP5573     0.2052
 36081 H2         -12.4960   -22.9070   -44.9900 H      5723  TIP5573     0.2052
 36082 OH2          8.8670     6.8840   -40.4910 O.3    5724  TIP5574    -0.4105
 36083 H1           8.3930     7.1460   -39.7020 H      5724  TIP5574     0.2052
 36084 H2           8.8280     5.9270   -40.4880 H      5724  TIP5574     0.2052
 36085 OH2         27.1450     3.6000    36.2270 O.3    5725  TIP5575    -0.4105
 36086 H1          27.6830     4.3500    36.4820 H      5725  TIP5575     0.2052
 36087 H2          26.3000     3.9800    35.9890 H      5725  TIP5575     0.2052
 36088 OH2        -16.0700    -6.5190    31.4860 O.3    5726  TIP5576    -0.4105
 36089 H1         -16.4050    -6.3230    30.6110 H      5726  TIP5576     0.2052
 36090 H2         -15.5290    -5.7620    31.7120 H      5726  TIP5576     0.2052
 36091 OH2         13.0320   -31.4580   -25.0760 O.3    5727  TIP5577    -0.4105
 36092 H1          12.8080   -31.0770   -24.2260 H      5727  TIP5577     0.2052
 36093 H2          13.7140   -32.1000   -24.8790 H      5727  TIP5577     0.2052
 36094 OH2         26.4400     3.0150    29.7440 O.3    5728  TIP5578    -0.4105
 36095 H1          25.6810     2.7050    29.2500 H      5728  TIP5578     0.2052
 36096 H2          26.7060     3.8180    29.2970 H      5728  TIP5578     0.2052
 36097 OH2         25.2380   -20.1010   -50.2230 O.3    5729  TIP5579    -0.4105
 36098 H1          25.2130   -20.9090   -49.7120 H      5729  TIP5579     0.2052
 36099 H2          26.0950   -19.7200   -50.0290 H      5729  TIP5579     0.2052
 36100 OH2         26.9740     5.6030    28.1680 O.3    5730  TIP5580    -0.4105
 36101 H1          27.4480     5.4590    27.3490 H      5730  TIP5580     0.2052
 36102 H2          27.3350     6.4190    28.5140 H      5730  TIP5580     0.2052
 36103 OH2         21.5670   -15.9260   -55.4200 O.3    5731  TIP5581    -0.4105
 36104 H1          22.3380   -15.9520   -54.8530 H      5731  TIP5581     0.2052
 36105 H2          21.7840   -15.2770   -56.0900 H      5731  TIP5581     0.2052
 36106 OH2          7.5950    14.4230   -55.2250 O.3    5732  TIP5582    -0.4105
 36107 H1           8.0860    14.7600   -54.4760 H      5732  TIP5582     0.2052
 36108 H2           8.2210    13.8690   -55.6920 H      5732  TIP5582     0.2052
 36109 OH2         20.2830    -8.5860   -23.5650 O.3    5733  TIP5583    -0.4105
 36110 H1          20.3690    -7.6340   -23.5190 H      5733  TIP5583     0.2052
 36111 H2          20.8140    -8.8380   -24.3210 H      5733  TIP5583     0.2052
 36112 OH2        -20.9600    -3.9770   -53.1840 O.3    5734  TIP5584    -0.4105
 36113 H1         -20.1530    -4.3020   -53.5820 H      5734  TIP5584     0.2052
 36114 H2         -21.5950    -4.6810   -53.3200 H      5734  TIP5584     0.2052
 36115 OH2         -4.0430     1.3280   -25.4990 O.3    5735  TIP5585    -0.4105
 36116 H1          -4.2020     0.3850   -25.4650 H      5735  TIP5585     0.2052
 36117 H2          -4.0590     1.5400   -26.4320 H      5735  TIP5585     0.2052
 36118 OH2        -12.4880    12.5620   -32.3050 O.3    5736  TIP5586    -0.4105
 36119 H1         -12.9000    11.9120   -32.8730 H      5736  TIP5586     0.2052
 36120 H2         -12.8710    13.3960   -32.5770 H      5736  TIP5586     0.2052
 36121 OH2         15.2940     4.8800   -40.3340 O.3    5737  TIP5587    -0.4105
 36122 H1          15.4750     5.7640   -40.6520 H      5737  TIP5587     0.2052
 36123 H2          16.1570     4.4770   -40.2410 H      5737  TIP5587     0.2052
 36124 OH2         -7.4820   -14.3790    44.6860 O.3    5738  TIP5588    -0.4105
 36125 H1          -8.0910   -15.1030    44.8340 H      5738  TIP5588     0.2052
 36126 H2          -7.4130   -14.3160    43.7330 H      5738  TIP5588     0.2052
 36127 OH2         16.8110    -5.2360   -39.2960 O.3    5739  TIP5589    -0.4105
 36128 H1          17.2080    -6.1030   -39.2120 H      5739  TIP5589     0.2052
 36129 H2          17.5520    -4.6430   -39.4200 H      5739  TIP5589     0.2052
 36130 OH2         -1.8240   -19.6480   -43.5990 O.3    5740  TIP5590    -0.4105
 36131 H1          -1.7460   -20.3770   -42.9830 H      5740  TIP5590     0.2052
 36132 H2          -2.1590   -18.9230   -43.0710 H      5740  TIP5590     0.2052
 36133 OH2         -5.0110    -6.3020    45.9440 O.3    5741  TIP5591    -0.4105
 36134 H1          -4.9080    -6.2770    44.9930 H      5741  TIP5591     0.2052
 36135 H2          -5.5060    -5.5100    46.1530 H      5741  TIP5591     0.2052
 36136 OH2         26.8300   -26.8190   -43.6280 O.3    5742  TIP5592    -0.4105
 36137 H1          27.0140   -27.6410   -43.1740 H      5742  TIP5592     0.2052
 36138 H2          27.4260   -26.8210   -44.3780 H      5742  TIP5592     0.2052
 36139 OH2        -17.0060    24.1730   -45.0410 O.3    5743  TIP5593    -0.4105
 36140 H1         -17.3420    24.4090   -45.9060 H      5743  TIP5593     0.2052
 36141 H2         -16.0960    24.4720   -45.0480 H      5743  TIP5593     0.2052
 36142 OH2         -5.6100   -14.8680    47.0550 O.3    5744  TIP5594    -0.4105
 36143 H1          -5.4360   -15.7950    46.8870 H      5744  TIP5594     0.2052
 36144 H2          -6.4740   -14.7140    46.6730 H      5744  TIP5594     0.2052
 36145 OH2         31.6890    11.9890   -49.9800 O.3    5745  TIP5595    -0.4105
 36146 H1          31.5880    11.3720   -50.7050 H      5745  TIP5595     0.2052
 36147 H2          31.9950    11.4530   -49.2490 H      5745  TIP5595     0.2052
 36148 OH2         17.9050   -24.4590    31.8130 O.3    5746  TIP5596    -0.4105
 36149 H1          17.8700   -24.5700    30.8630 H      5746  TIP5596     0.2052
 36150 H2          17.0890   -24.0100    32.0330 H      5746  TIP5596     0.2052
 36151 OH2        -13.6770    32.8500   -35.1340 O.3    5747  TIP5597    -0.4105
 36152 H1         -14.1600    33.6250   -34.8490 H      5747  TIP5597     0.2052
 36153 H2         -13.8180    32.8130   -36.0800 H      5747  TIP5597     0.2052
 36154 OH2         32.2950    -2.3970   -49.8880 O.3    5748  TIP5598    -0.4105
 36155 H1          32.7690    -3.2170   -50.0270 H      5748  TIP5598     0.2052
 36156 H2          32.3060    -1.9660   -50.7430 H      5748  TIP5598     0.2052
 36157 OH2        -21.2720     1.1660    41.0160 O.3    5749  TIP5599    -0.4105
 36158 H1         -21.9630     1.4180    40.4040 H      5749  TIP5599     0.2052
 36159 H2         -20.5460     0.8880    40.4570 H      5749  TIP5599     0.2052
 36160 OH2         22.2450     3.9600    31.6310 O.3    5750  TIP5600    -0.4105
 36161 H1          21.4750     3.5290    31.2600 H      5750  TIP5600     0.2052
 36162 H2          22.7070     3.2650    32.1000 H      5750  TIP5600     0.2052
 36163 OH2        -29.8100   -20.5880    17.5590 O.3    5751  TIP5601    -0.4105
 36164 H1         -29.0370   -20.8750    18.0460 H      5751  TIP5601     0.2052
 36165 H2         -29.4620   -20.2490    16.7350 H      5751  TIP5601     0.2052
 36166 OH2         -9.3090    31.2650   -27.8680 O.3    5752  TIP5602    -0.4105
 36167 H1          -9.4020    31.2410   -28.8210 H      5752  TIP5602     0.2052
 36168 H2          -9.4380    30.3580   -27.5910 H      5752  TIP5602     0.2052
 36169 OH2        -16.0700    28.0230    53.2410 O.3    5753  TIP5603    -0.4105
 36170 H1         -15.5710    28.2320    54.0310 H      5753  TIP5603     0.2052
 36171 H2         -16.0580    27.0670    53.1950 H      5753  TIP5603     0.2052
 36172 OH2         28.1210     2.5880    47.2000 O.3    5754  TIP5604    -0.4105
 36173 H1          28.7500     2.9610    46.5820 H      5754  TIP5604     0.2052
 36174 H2          28.2070     1.6420    47.0880 H      5754  TIP5604     0.2052
 36175 OH2         -7.4300   -16.3280   -25.5290 O.3    5755  TIP5605    -0.4105
 36176 H1          -6.5810   -15.9000   -25.6360 H      5755  TIP5605     0.2052
 36177 H2          -8.0600   -15.7090   -25.8980 H      5755  TIP5605     0.2052
 36178 OH2         16.8890   -25.9980   -33.3120 O.3    5756  TIP5606    -0.4105
 36179 H1          17.0830   -26.7610   -32.7680 H      5756  TIP5606     0.2052
 36180 H2          17.3890   -26.1420   -34.1150 H      5756  TIP5606     0.2052
 36181 OH2        -25.9820    31.1620    26.3970 O.3    5757  TIP5607    -0.4105
 36182 H1         -25.7990    31.4990    25.5200 H      5757  TIP5607     0.2052
 36183 H2         -26.9320    31.0420    26.4140 H      5757  TIP5607     0.2052
 36184 OH2         12.2750    -4.9670    25.4670 O.3    5758  TIP5608    -0.4105
 36185 H1          12.9890    -5.5720    25.2640 H      5758  TIP5608     0.2052
 36186 H2          12.0790    -5.1280    26.3900 H      5758  TIP5608     0.2052
 36187 OH2         23.4860    11.6000   -42.9440 O.3    5759  TIP5609    -0.4105
 36188 H1          23.0700    12.4080   -43.2470 H      5759  TIP5609     0.2052
 36189 H2          23.4900    11.0300   -43.7120 H      5759  TIP5609     0.2052
 36190 OH2         18.9990   -12.6960    28.8450 O.3    5760  TIP5610    -0.4105
 36191 H1          19.9490   -12.6970    28.9650 H      5760  TIP5610     0.2052
 36192 H2          18.8560   -13.2230    28.0590 H      5760  TIP5610     0.2052
 36193 OH2          6.0620    16.7420    42.1080 O.3    5761  TIP5611    -0.4105
 36194 H1           5.7460    15.9590    41.6580 H      5761  TIP5611     0.2052
 36195 H2           6.9820    16.5550    42.2980 H      5761  TIP5611     0.2052
 36196 OH2         16.9630   -30.8030    40.3290 O.3    5762  TIP5612    -0.4105
 36197 H1          17.0030   -30.4940    39.4240 H      5762  TIP5612     0.2052
 36198 H2          16.0720   -31.1390    40.4290 H      5762  TIP5612     0.2052
 36199 OH2        -25.5270    32.1540    23.9020 O.3    5763  TIP5613    -0.4105
 36200 H1         -24.6450    32.4860    23.7300 H      5763  TIP5613     0.2052
 36201 H2         -25.8220    31.8100    23.0590 H      5763  TIP5613     0.2052
 36202 OH2         22.6090    11.3120   -39.7610 O.3    5764  TIP5614    -0.4105
 36203 H1          23.1220    12.0710   -40.0400 H      5764  TIP5614     0.2052
 36204 H2          21.8570    11.6870   -39.3020 H      5764  TIP5614     0.2052
 36205 OH2         -6.5460     3.1090   -21.0820 O.3    5765  TIP5615    -0.4105
 36206 H1          -6.6160     3.4760   -20.2010 H      5765  TIP5615     0.2052
 36207 H2          -7.3590     3.3690   -21.5150 H      5765  TIP5615     0.2052
 36208 OH2        -30.1010     0.0470   -44.2420 O.3    5766  TIP5616    -0.4105
 36209 H1         -29.4660     0.7510   -44.3740 H      5766  TIP5616     0.2052
 36210 H2         -29.5690    -0.7190   -44.0280 H      5766  TIP5616     0.2052
 36211 OH2          9.7770     6.8760   -10.8000 O.3    5767  TIP5617    -0.4105
 36212 H1           9.1870     7.6280   -10.7500 H      5767  TIP5617     0.2052
 36213 H2          10.2310     6.9810   -11.6360 H      5767  TIP5617     0.2052
 36214 OH2         21.2690    -9.1250    48.8740 O.3    5768  TIP5618    -0.4105
 36215 H1          21.9620    -9.3670    49.4880 H      5768  TIP5618     0.2052
 36216 H2          21.5640    -8.2980    48.4930 H      5768  TIP5618     0.2052
 36217 OH2         18.7460    17.9050   -22.0090 O.3    5769  TIP5619    -0.4105
 36218 H1          19.3000    17.2510   -21.5840 H      5769  TIP5619     0.2052
 36219 H2          18.5480    18.5380   -21.3190 H      5769  TIP5619     0.2052
 36220 OH2         -1.2030     2.0590    45.0010 O.3    5770  TIP5620    -0.4105
 36221 H1          -1.5490     1.8100    44.1440 H      5770  TIP5620     0.2052
 36222 H2          -1.7610     2.7830    45.2840 H      5770  TIP5620     0.2052
 36223 OH2         -7.4420    16.1920    55.0640 O.3    5771  TIP5621    -0.4105
 36224 H1          -8.0830    15.5950    54.6800 H      5771  TIP5621     0.2052
 36225 H2          -6.5940    15.8400    54.7940 H      5771  TIP5621     0.2052
 36226 OH2        -28.2700    16.3040   -38.7270 O.3    5772  TIP5622    -0.4105
 36227 H1         -28.7630    15.8600   -38.0370 H      5772  TIP5622     0.2052
 36228 H2         -27.7850    16.9920   -38.2700 H      5772  TIP5622     0.2052
 36229 OH2          9.0010   -12.0070   -25.8200 O.3    5773  TIP5623    -0.4105
 36230 H1           9.0720   -12.4980   -25.0010 H      5773  TIP5623     0.2052
 36231 H2           8.6300   -12.6310   -26.4430 H      5773  TIP5623     0.2052
 36232 OH2         -4.1660    18.1410    24.9290 O.3    5774  TIP5624    -0.4105
 36233 H1          -3.9690    19.0030    24.5610 H      5774  TIP5624     0.2052
 36234 H2          -3.9800    17.5280    24.2170 H      5774  TIP5624     0.2052
 36235 OH2         -5.3410    -1.7690    39.8550 O.3    5775  TIP5625    -0.4105
 36236 H1          -5.0160    -2.2070    40.6420 H      5775  TIP5625     0.2052
 36237 H2          -5.1620    -2.3870    39.1460 H      5775  TIP5625     0.2052
 36238 OH2         33.0060    -7.5470   -43.1540 O.3    5776  TIP5626    -0.4105
 36239 H1          33.1140    -6.6080   -43.3090 H      5776  TIP5626     0.2052
 36240 H2          33.2900    -7.6750   -42.2490 H      5776  TIP5626     0.2052
 36241 OH2        -24.0760   -16.7900   -35.2330 O.3    5777  TIP5627    -0.4105
 36242 H1         -23.8660   -15.9760   -34.7760 H      5777  TIP5627     0.2052
 36243 H2         -23.9650   -16.5810   -36.1600 H      5777  TIP5627     0.2052
 36244 OH2         -5.1070   -19.3300    41.3970 O.3    5778  TIP5628    -0.4105
 36245 H1          -5.4360   -18.9050    40.6050 H      5778  TIP5628     0.2052
 36246 H2          -5.8940   -19.6120    41.8630 H      5778  TIP5628     0.2052
 36247 OH2        -12.5580     4.3900    55.2060 O.3    5779  TIP5629    -0.4105
 36248 H1         -13.4330     4.6810    55.4600 H      5779  TIP5629     0.2052
 36249 H2         -12.0120     5.1710    55.2880 H      5779  TIP5629     0.2052
 36250 OH2         17.8450    -9.2080    55.1250 O.3    5780  TIP5630    -0.4105
 36251 H1          16.9380    -9.1440    55.4240 H      5780  TIP5630     0.2052
 36252 H2          17.9050   -10.0740    54.7220 H      5780  TIP5630     0.2052
 36253 OH2         31.2400    -8.6240   -35.3080 O.3    5781  TIP5631    -0.4105
 36254 H1          31.2350    -7.8720   -35.9010 H      5781  TIP5631     0.2052
 36255 H2          31.2250    -8.2380   -34.4320 H      5781  TIP5631     0.2052
 36256 OH2         -6.3470    15.2730    36.4110 O.3    5782  TIP5632    -0.4105
 36257 H1          -6.5980    14.9010    35.5650 H      5782  TIP5632     0.2052
 36258 H2          -6.7560    16.1380    36.4240 H      5782  TIP5632     0.2052
 36259 OH2         28.2880    -2.1570   -44.2170 O.3    5783  TIP5633    -0.4105
 36260 H1          28.9770    -1.5510   -43.9430 H      5783  TIP5633     0.2052
 36261 H2          27.8160    -2.3650   -43.4110 H      5783  TIP5633     0.2052
 36262 OH2          3.9580    -4.6230    38.1260 O.3    5784  TIP5634    -0.4105
 36263 H1           4.0380    -5.3020    38.7960 H      5784  TIP5634     0.2052
 36264 H2           4.0150    -3.8000    38.6100 H      5784  TIP5634     0.2052
 36265 OH2         27.9140     6.3350    25.8050 O.3    5785  TIP5635    -0.4105
 36266 H1          27.8110     6.2830    24.8550 H      5785  TIP5635     0.2052
 36267 H2          28.8570     6.2570    25.9490 H      5785  TIP5635     0.2052
 36268 OH2          6.5320   -28.6360    42.5790 O.3    5786  TIP5636    -0.4105
 36269 H1           6.0340   -28.0470    42.0100 H      5786  TIP5636     0.2052
 36270 H2           6.3480   -29.5110    42.2370 H      5786  TIP5636     0.2052
 36271 OH2         20.5670    -2.8330    28.5210 O.3    5787  TIP5637    -0.4105
 36272 H1          21.2720    -2.7120    29.1570 H      5787  TIP5637     0.2052
 36273 H2          21.0100    -3.1200    27.7230 H      5787  TIP5637     0.2052
 36274 OH2         26.8580    21.1850   -22.7390 O.3    5788  TIP5638    -0.4105
 36275 H1          27.4920    21.8310   -22.4270 H      5788  TIP5638     0.2052
 36276 H2          27.0850    21.0510   -23.6590 H      5788  TIP5638     0.2052
 36277 OH2        -16.9990    -6.1020    34.7200 O.3    5789  TIP5639    -0.4105
 36278 H1         -17.3610    -6.1410    33.8350 H      5789  TIP5639     0.2052
 36279 H2         -17.4790    -5.3900    35.1440 H      5789  TIP5639     0.2052
 36280 OH2        -32.4890    26.8060    34.1240 O.3    5790  TIP5640    -0.4105
 36281 H1         -33.0840    27.3260    34.6650 H      5790  TIP5640     0.2052
 36282 H2         -32.8620    25.9240    34.1370 H      5790  TIP5640     0.2052
 36283 OH2         28.1440    -7.9530    30.0570 O.3    5791  TIP5641    -0.4105
 36284 H1          27.4300    -7.4190    30.4040 H      5791  TIP5641     0.2052
 36285 H2          27.9010    -8.8520    30.2790 H      5791  TIP5641     0.2052
 36286 OH2          2.9750   -20.2230    23.8510 O.3    5792  TIP5642    -0.4105
 36287 H1           2.4180   -20.8220    23.3540 H      5792  TIP5642     0.2052
 36288 H2           3.0310   -19.4380    23.3060 H      5792  TIP5642     0.2052
 36289 OH2          3.6860    11.6350    26.6330 O.3    5793  TIP5643    -0.4105
 36290 H1           3.8810    11.1600    25.8250 H      5793  TIP5643     0.2052
 36291 H2           3.6220    12.5510    26.3630 H      5793  TIP5643     0.2052
 36292 OH2         29.0550    -9.3250   -38.4670 O.3    5794  TIP5644    -0.4105
 36293 H1          28.4360    -9.6690   -39.1110 H      5794  TIP5644     0.2052
 36294 H2          29.8560    -9.1640   -38.9660 H      5794  TIP5644     0.2052
 36295 OH2        -16.6840    11.1670   -53.6590 O.3    5795  TIP5645    -0.4105
 36296 H1         -17.2970    10.7950   -54.2940 H      5795  TIP5645     0.2052
 36297 H2         -15.8830    11.3180   -54.1600 H      5795  TIP5645     0.2052
 36298 OH2        -23.1720   -14.7310    33.4010 O.3    5796  TIP5646    -0.4105
 36299 H1         -23.5760   -14.9330    34.2450 H      5796  TIP5646     0.2052
 36300 H2         -23.8680   -14.8790    32.7600 H      5796  TIP5646     0.2052
 36301 OH2         -2.1210    31.1750   -28.1170 O.3    5797  TIP5647    -0.4105
 36302 H1          -2.6580    31.9670   -28.1060 H      5797  TIP5647     0.2052
 36303 H2          -1.7450    31.1270   -27.2380 H      5797  TIP5647     0.2052
 36304 OH2        -27.3550     1.7720   -39.3960 O.3    5798  TIP5648    -0.4105
 36305 H1         -27.1950     0.9750   -38.8900 H      5798  TIP5648     0.2052
 36306 H2         -26.4940     2.1830   -39.4730 H      5798  TIP5648     0.2052
 36307 OH2         10.4090   -25.9800   -40.9240 O.3    5799  TIP5649    -0.4105
 36308 H1          11.2050   -26.2000   -41.4070 H      5799  TIP5649     0.2052
 36309 H2          10.4430   -26.5290   -40.1410 H      5799  TIP5649     0.2052
 36310 OH2          0.6250   -27.0120   -31.0180 O.3    5800  TIP5650    -0.4105
 36311 H1           0.6310   -26.0830   -30.7860 H      5800  TIP5650     0.2052
 36312 H2           0.4440   -27.0240   -31.9580 H      5800  TIP5650     0.2052
 36313 OH2         -1.8480   -22.7890   -53.0740 O.3    5801  TIP5651    -0.4105
 36314 H1          -2.4720   -22.2410   -53.5500 H      5801  TIP5651     0.2052
 36315 H2          -2.1530   -22.7690   -52.1670 H      5801  TIP5651     0.2052
 36316 OH2        -23.8190    -1.4060    18.3010 O.3    5802  TIP5652    -0.4105
 36317 H1         -24.6730    -1.6210    17.9250 H      5802  TIP5652     0.2052
 36318 H2         -23.2160    -1.4300    17.5580 H      5802  TIP5652     0.2052
 36319 OH2         -3.0640   -13.8650   -30.2020 O.3    5803  TIP5653    -0.4105
 36320 H1          -3.9940   -13.9650   -30.4080 H      5803  TIP5653     0.2052
 36321 H2          -2.6110   -14.1520   -30.9950 H      5803  TIP5653     0.2052
 36322 OH2          8.9680   -29.4260   -51.0170 O.3    5804  TIP5654    -0.4105
 36323 H1           9.7980   -29.2130   -51.4430 H      5804  TIP5654     0.2052
 36324 H2           9.0560   -29.0760   -50.1300 H      5804  TIP5654     0.2052
 36325 OH2         17.5770     3.8370   -21.5640 O.3    5805  TIP5655    -0.4105
 36326 H1          17.8080     4.6420   -21.1000 H      5805  TIP5655     0.2052
 36327 H2          16.6620     3.6800   -21.3300 H      5805  TIP5655     0.2052
 36328 OH2        -21.8470    17.1850    39.0510 O.3    5806  TIP5656    -0.4105
 36329 H1         -21.8560    16.5980    39.8080 H      5806  TIP5656     0.2052
 36330 H2         -22.5510    16.8630    38.4890 H      5806  TIP5656     0.2052
 36331 OH2         32.7490    31.1160    46.7980 O.3    5807  TIP5657    -0.4105
 36332 H1          32.9900    30.5330    46.0780 H      5807  TIP5657     0.2052
 36333 H2          32.9020    31.9960    46.4550 H      5807  TIP5657     0.2052
 36334 OH2         23.6430   -11.5000    46.0320 O.3    5808  TIP5658    -0.4105
 36335 H1          24.0500   -10.6340    46.0140 H      5808  TIP5658     0.2052
 36336 H2          22.7160   -11.3260    46.1920 H      5808  TIP5658     0.2052
 36337 OH2         18.7090    -3.3100   -40.1220 O.3    5809  TIP5659    -0.4105
 36338 H1          19.0540    -3.3680   -39.2310 H      5809  TIP5659     0.2052
 36339 H2          19.4790    -3.1470   -40.6670 H      5809  TIP5659     0.2052
 36340 OH2         15.2220    17.3930   -37.8510 O.3    5810  TIP5660    -0.4105
 36341 H1          15.2040    16.7960   -37.1030 H      5810  TIP5660     0.2052
 36342 H2          14.3740    17.8370   -37.8250 H      5810  TIP5660     0.2052
 36343 OH2         17.8480    28.3670    34.3860 O.3    5811  TIP5661    -0.4105
 36344 H1          18.4780    29.0120    34.0640 H      5811  TIP5661     0.2052
 36345 H2          17.1210    28.8900    34.7250 H      5811  TIP5661     0.2052
 36346 OH2         -3.6660   -26.0610   -44.9320 O.3    5812  TIP5662    -0.4105
 36347 H1          -3.7680   -25.3150   -45.5230 H      5812  TIP5662     0.2052
 36348 H2          -3.9350   -26.8180   -45.4520 H      5812  TIP5662     0.2052
 36349 OH2          1.6450     0.7450   -21.1140 O.3    5813  TIP5663    -0.4105
 36350 H1           2.2820     0.7040   -20.4000 H      5813  TIP5663     0.2052
 36351 H2           1.8660     0.0030   -21.6760 H      5813  TIP5663     0.2052
 36352 OH2         32.3060    26.7020   -47.1730 O.3    5814  TIP5664    -0.4105
 36353 H1          32.5660    26.6810   -46.2520 H      5814  TIP5664     0.2052
 36354 H2          31.9940    27.5960   -47.3140 H      5814  TIP5664     0.2052
 36355 OH2        -11.0960   -25.6120    41.7480 O.3    5815  TIP5665    -0.4105
 36356 H1         -10.8850   -25.0430    41.0070 H      5815  TIP5665     0.2052
 36357 H2         -12.0460   -25.7180    41.7060 H      5815  TIP5665     0.2052
 36358 OH2        -22.3210   -27.9190    36.6610 O.3    5816  TIP5666    -0.4105
 36359 H1         -22.3930   -26.9640    36.6790 H      5816  TIP5666     0.2052
 36360 H2         -21.5620   -28.1120    37.2110 H      5816  TIP5666     0.2052
 36361 OH2         29.6900   -20.5120    24.4750 O.3    5817  TIP5667    -0.4105
 36362 H1          28.8520   -20.6050    24.0230 H      5817  TIP5667     0.2052
 36363 H2          30.2530   -20.0590    23.8460 H      5817  TIP5667     0.2052
 36364 OH2        -32.5860    17.1500    30.0670 O.3    5818  TIP5668    -0.4105
 36365 H1         -32.2780    16.2440    30.0240 H      5818  TIP5668     0.2052
 36366 H2         -31.8560    17.6330    30.4540 H      5818  TIP5668     0.2052
 36367 OH2          1.1330    17.0120    48.0170 O.3    5819  TIP5669    -0.4105
 36368 H1           1.3950    16.3580    47.3690 H      5819  TIP5669     0.2052
 36369 H2           0.2180    17.2000    47.8110 H      5819  TIP5669     0.2052
 36370 OH2        -22.6580    -5.2940   -21.9250 O.3    5820  TIP5670    -0.4105
 36371 H1         -22.6860    -5.9770   -22.5950 H      5820  TIP5670     0.2052
 36372 H2         -22.3900    -5.7500   -21.1280 H      5820  TIP5670     0.2052
 36373 OH2         29.7000   -30.1710   -53.4300 O.3    5821  TIP5671    -0.4105
 36374 H1          29.6360   -30.4800   -52.5270 H      5821  TIP5671     0.2052
 36375 H2          30.1490   -29.3280   -53.3650 H      5821  TIP5671     0.2052
 36376 OH2         -6.6850    13.8220   -52.0310 O.3    5822  TIP5672    -0.4105
 36377 H1          -7.5030    14.2970   -51.8910 H      5822  TIP5672     0.2052
 36378 H2          -6.1410    14.0530   -51.2780 H      5822  TIP5672     0.2052
 36379 OH2          0.8350   -24.0040   -37.8100 O.3    5823  TIP5673    -0.4105
 36380 H1           0.0730   -23.9770   -37.2320 H      5823  TIP5673     0.2052
 36381 H2           0.4680   -23.9630   -38.6930 H      5823  TIP5673     0.2052
 36382 OH2         25.4280   -19.6590   -21.2980 O.3    5824  TIP5674    -0.4105
 36383 H1          26.0290   -20.3650   -21.0580 H      5824  TIP5674     0.2052
 36384 H2          25.3900   -19.1020   -20.5200 H      5824  TIP5674     0.2052
 36385 OH2        -23.7510     9.0010    32.7320 O.3    5825  TIP5675    -0.4105
 36386 H1         -23.8970     8.9070    33.6740 H      5825  TIP5675     0.2052
 36387 H2         -23.3540     9.8660    32.6350 H      5825  TIP5675     0.2052
 36388 OH2        -30.6980   -14.8040    49.5420 O.3    5826  TIP5676    -0.4105
 36389 H1         -30.6730   -14.6660    50.4890 H      5826  TIP5676     0.2052
 36390 H2         -30.5730   -15.7470    49.4340 H      5826  TIP5676     0.2052
 36391 OH2         23.8850    18.6380   -45.3130 O.3    5827  TIP5677    -0.4105
 36392 H1          23.6650    19.5660   -45.2290 H      5827  TIP5677     0.2052
 36393 H2          23.9390    18.3220   -44.4110 H      5827  TIP5677     0.2052
 36394 OH2         -5.6490   -30.7880   -34.4540 O.3    5828  TIP5678    -0.4105
 36395 H1          -5.3310   -30.6640   -35.3490 H      5828  TIP5678     0.2052
 36396 H2          -4.8670   -30.7030   -33.9080 H      5828  TIP5678     0.2052
 36397 OH2          0.1030   -31.5710   -37.2110 O.3    5829  TIP5679    -0.4105
 36398 H1          -0.8140   -31.8360   -37.2760 H      5829  TIP5679     0.2052
 36399 H2           0.5670   -32.1610   -37.8050 H      5829  TIP5679     0.2052
 36400 OH2        -12.3800   -20.7790    26.9350 O.3    5830  TIP5680    -0.4105
 36401 H1         -13.3110   -20.8650    27.1400 H      5830  TIP5680     0.2052
 36402 H2         -12.2890   -19.8870    26.6010 H      5830  TIP5680     0.2052
 36403 OH2         -2.7260    14.8180   -41.1380 O.3    5831  TIP5681    -0.4105
 36404 H1          -1.9740    14.4110   -40.7080 H      5831  TIP5681     0.2052
 36405 H2          -2.7430    14.4270   -42.0120 H      5831  TIP5681     0.2052
 36406 OH2        -23.1970     3.5850   -36.1720 O.3    5832  TIP5682    -0.4105
 36407 H1         -23.3870     3.0000   -36.9060 H      5832  TIP5682     0.2052
 36408 H2         -23.2410     4.4640   -36.5480 H      5832  TIP5682     0.2052
 36409 OH2         -1.8950    -1.3660   -53.3380 O.3    5833  TIP5683    -0.4105
 36410 H1          -2.0280    -1.6640   -52.4380 H      5833  TIP5683     0.2052
 36411 H2          -2.5030    -1.8920   -53.8570 H      5833  TIP5683     0.2052
 36412 OH2         12.7530   -11.8340    23.9800 O.3    5834  TIP5684    -0.4105
 36413 H1          12.4280   -12.4280    23.3030 H      5834  TIP5684     0.2052
 36414 H2          13.6350   -11.5990    23.6910 H      5834  TIP5684     0.2052
 36415 OH2          2.4900    16.6930    52.7950 O.3    5835  TIP5685    -0.4105
 36416 H1           2.6710    15.7640    52.6520 H      5835  TIP5685     0.2052
 36417 H2           2.2640    17.0300    51.9280 H      5835  TIP5685     0.2052
 36418 OH2         22.1940     5.7270   -45.3450 O.3    5836  TIP5686    -0.4105
 36419 H1          22.1980     4.7720   -45.2770 H      5836  TIP5686     0.2052
 36420 H2          21.4120     5.9980   -44.8640 H      5836  TIP5686     0.2052
 36421 OH2        -11.7100    11.9380    33.9930 O.3    5837  TIP5687    -0.4105
 36422 H1         -11.0610    11.8150    33.3010 H      5837  TIP5687     0.2052
 36423 H2         -11.2550    12.4530    34.6600 H      5837  TIP5687     0.2052
 36424 OH2        -23.8330    -1.3170    51.9230 O.3    5838  TIP5688    -0.4105
 36425 H1         -24.1210    -1.3000    51.0100 H      5838  TIP5688     0.2052
 36426 H2         -23.9160    -2.2350    52.1830 H      5838  TIP5688     0.2052
 36427 OH2         -8.6100    20.9870   -42.8010 O.3    5839  TIP5689    -0.4105
 36428 H1          -8.1710    21.7120   -42.3570 H      5839  TIP5689     0.2052
 36429 H2          -8.3700    20.2120   -42.2920 H      5839  TIP5689     0.2052
 36430 OH2         25.8560    27.5880    55.3440 O.3    5840  TIP5690    -0.4105
 36431 H1          25.3390    27.7090    56.1400 H      5840  TIP5690     0.2052
 36432 H2          25.3190    27.9680    54.6490 H      5840  TIP5690     0.2052
 36433 OH2          6.8290     7.2640    36.3870 O.3    5841  TIP5691    -0.4105
 36434 H1           6.6540     7.5340    35.4850 H      5841  TIP5691     0.2052
 36435 H2           6.2230     6.5400    36.5420 H      5841  TIP5691     0.2052
 36436 OH2        -21.2470    24.6680   -28.3170 O.3    5842  TIP5692    -0.4105
 36437 H1         -21.5940    24.8870   -27.4520 H      5842  TIP5692     0.2052
 36438 H2         -20.9780    23.7530   -28.2440 H      5842  TIP5692     0.2052
 36439 OH2         -0.3660    -6.3160   -42.7760 O.3    5843  TIP5693    -0.4105
 36440 H1           0.3590    -6.3110   -42.1500 H      5843  TIP5693     0.2052
 36441 H2          -0.1240    -5.6590   -43.4280 H      5843  TIP5693     0.2052
 36442 OH2         -9.5710    10.8630   -51.8820 O.3    5844  TIP5694    -0.4105
 36443 H1         -10.2890    10.2370   -51.7860 H      5844  TIP5694     0.2052
 36444 H2          -9.9990    11.6790   -52.1410 H      5844  TIP5694     0.2052
 36445 OH2        -22.5390    14.0160    55.5550 O.3    5845  TIP5695    -0.4105
 36446 H1         -23.3430    14.1200    55.0460 H      5845  TIP5695     0.2052
 36447 H2         -21.8670    14.4550    55.0340 H      5845  TIP5695     0.2052
 36448 OH2          8.5130     1.4680    54.0060 O.3    5846  TIP5696    -0.4105
 36449 H1           9.1010     2.0990    53.5930 H      5846  TIP5696     0.2052
 36450 H2           9.0220     1.1030    54.7300 H      5846  TIP5696     0.2052
 36451 OH2         24.0980   -11.8050   -13.8020 O.3    5847  TIP5697    -0.4105
 36452 H1          24.7630   -11.2120   -14.1520 H      5847  TIP5697     0.2052
 36453 H2          24.5970   -12.5170   -13.4020 H      5847  TIP5697     0.2052
 36454 OH2         -8.4870   -21.6810   -30.1710 O.3    5848  TIP5698    -0.4105
 36455 H1          -7.8520   -20.9720   -30.0710 H      5848  TIP5698     0.2052
 36456 H2          -8.7520   -21.6370   -31.0900 H      5848  TIP5698     0.2052
 36457 OH2        -24.1240    22.0460    46.4030 O.3    5849  TIP5699    -0.4105
 36458 H1         -24.8840    22.6250    46.3450 H      5849  TIP5699     0.2052
 36459 H2         -23.7620    22.0370    45.5170 H      5849  TIP5699     0.2052
 36460 OH2         10.0690   -26.1560   -36.0860 O.3    5850  TIP5700    -0.4105
 36461 H1           9.9060   -26.4040   -36.9960 H      5850  TIP5700     0.2052
 36462 H2          10.8710   -25.6350   -36.1190 H      5850  TIP5700     0.2052
 36463 OH2         -6.9040    14.5850    23.4140 O.3    5851  TIP5701    -0.4105
 36464 H1          -6.6990    15.2720    22.7800 H      5851  TIP5701     0.2052
 36465 H2          -6.8260    13.7700    22.9180 H      5851  TIP5701     0.2052
 36466 OH2        -10.7770     1.1790    46.8940 O.3    5852  TIP5702    -0.4105
 36467 H1         -11.3370     1.6870    46.3070 H      5852  TIP5702     0.2052
 36468 H2          -9.9540     1.0790    46.4140 H      5852  TIP5702     0.2052
 36469 OH2        -22.0740   -27.1700    42.9790 O.3    5853  TIP5703    -0.4105
 36470 H1         -22.2320   -28.0920    42.7760 H      5853  TIP5703     0.2052
 36471 H2         -22.4840   -27.0390    43.8340 H      5853  TIP5703     0.2052
 36472 OH2         27.7590   -21.7880    37.5910 O.3    5854  TIP5704    -0.4105
 36473 H1          28.7100   -21.7100    37.5130 H      5854  TIP5704     0.2052
 36474 H2          27.5950   -21.7840    38.5350 H      5854  TIP5704     0.2052
 36475 OH2        -32.3010    24.9180   -48.4730 O.3    5855  TIP5705    -0.4105
 36476 H1         -31.4480    25.3510   -48.4650 H      5855  TIP5705     0.2052
 36477 H2         -32.9030    25.5660   -48.1070 H      5855  TIP5705     0.2052
 36478 OH2        -18.6360     0.6070   -37.8080 O.3    5856  TIP5706    -0.4105
 36479 H1         -18.4960     1.3390   -37.2070 H      5856  TIP5706     0.2052
 36480 H2         -17.7550     0.3430   -38.0740 H      5856  TIP5706     0.2052
 36481 OH2        -24.1880     9.5300    48.5880 O.3    5857  TIP5707    -0.4105
 36482 H1         -24.2120     8.6880    48.1320 H      5857  TIP5707     0.2052
 36483 H2         -24.0110    10.1710    47.9000 H      5857  TIP5707     0.2052
 36484 OH2         30.3940   -32.9950   -28.0710 O.3    5858  TIP5708    -0.4105
 36485 H1          30.9850   -32.2850   -28.3230 H      5858  TIP5708     0.2052
 36486 H2          29.9740   -32.6830   -27.2690 H      5858  TIP5708     0.2052
 36487 OH2         15.9560    30.3180    35.1520 O.3    5859  TIP5709    -0.4105
 36488 H1          15.8160    30.0280    36.0540 H      5859  TIP5709     0.2052
 36489 H2          15.7080    31.2420    35.1550 H      5859  TIP5709     0.2052
 36490 OH2        -25.4620   -26.8270    41.2480 O.3    5860  TIP5710    -0.4105
 36491 H1         -25.6650   -25.9800    41.6450 H      5860  TIP5710     0.2052
 36492 H2         -24.5760   -26.7240    40.9010 H      5860  TIP5710     0.2052
 36493 OH2          7.3550   -17.9490    32.7030 O.3    5861  TIP5711    -0.4105
 36494 H1           7.0500   -18.5510    33.3810 H      5861  TIP5711     0.2052
 36495 H2           8.1880   -18.3190    32.4100 H      5861  TIP5711     0.2052
 36496 OH2         -7.4290    32.6680    15.6900 O.3    5862  TIP5712    -0.4105
 36497 H1          -8.1760    32.0930    15.5190 H      5862  TIP5712     0.2052
 36498 H2          -7.8060    33.4230    16.1410 H      5862  TIP5712     0.2052
 36499 OH2         12.9670    -2.8480   -39.1940 O.3    5863  TIP5713    -0.4105
 36500 H1          13.7260    -2.5210   -39.6760 H      5863  TIP5713     0.2052
 36501 H2          12.6900    -2.1090   -38.6530 H      5863  TIP5713     0.2052
 36502 OH2         -9.0770   -27.7670   -21.7050 O.3    5864  TIP5714    -0.4105
 36503 H1          -8.8210   -26.8460   -21.6560 H      5864  TIP5714     0.2052
 36504 H2          -8.3440   -28.1960   -22.1460 H      5864  TIP5714     0.2052
 36505 OH2        -25.9010   -19.2560   -40.8950 O.3    5865  TIP5715    -0.4105
 36506 H1         -25.8930   -18.5770   -40.2200 H      5865  TIP5715     0.2052
 36507 H2         -26.6970   -19.0840   -41.3990 H      5865  TIP5715     0.2052
 36508 OH2         31.1260    22.8400   -48.5690 O.3    5866  TIP5716    -0.4105
 36509 H1          31.4910    22.4790   -49.3770 H      5866  TIP5716     0.2052
 36510 H2          31.0960    23.7840   -48.7200 H      5866  TIP5716     0.2052
 36511 OH2        -13.2900    26.7600   -33.8570 O.3    5867  TIP5717    -0.4105
 36512 H1         -12.6970    26.0090   -33.8880 H      5867  TIP5717     0.2052
 36513 H2         -13.4830    26.9510   -34.7750 H      5867  TIP5717     0.2052
 36514 OH2        -13.9690    -6.3730    39.7260 O.3    5868  TIP5718    -0.4105
 36515 H1         -13.4920    -6.7360    40.4720 H      5868  TIP5718     0.2052
 36516 H2         -14.3860    -7.1300    39.3160 H      5868  TIP5718     0.2052
 36517 OH2        -18.8890    13.6410    55.2490 O.3    5869  TIP5719    -0.4105
 36518 H1         -18.4490    13.0990    54.5940 H      5869  TIP5719     0.2052
 36519 H2         -18.3890    14.4570    55.2610 H      5869  TIP5719     0.2052
 36520 OH2         -2.5340    17.7280    34.5220 O.3    5870  TIP5720    -0.4105
 36521 H1          -2.3450    18.6660    34.4810 H      5870  TIP5720     0.2052
 36522 H2          -3.3760    17.6330    34.0780 H      5870  TIP5720     0.2052
 36523 OH2          4.7940   -18.3440    21.9540 O.3    5871  TIP5721    -0.4105
 36524 H1           4.5560   -18.9860    21.2850 H      5871  TIP5721     0.2052
 36525 H2           5.6940   -18.0980    21.7410 H      5871  TIP5721     0.2052
 36526 OH2        -29.5560    -0.8560   -28.5510 O.3    5872  TIP5722    -0.4105
 36527 H1         -28.8600    -0.2060   -28.4550 H      5872  TIP5722     0.2052
 36528 H2         -29.1000    -1.6980   -28.5430 H      5872  TIP5722     0.2052
 36529 OH2        -11.8900   -18.8930    17.8200 O.3    5873  TIP5723    -0.4105
 36530 H1         -12.0500   -18.9700    18.7610 H      5873  TIP5723     0.2052
 36531 H2         -12.7460   -18.6860    17.4470 H      5873  TIP5723     0.2052
 36532 OH2          1.9320    -0.8750    55.2110 O.3    5874  TIP5724    -0.4105
 36533 H1           2.4190    -0.1110    54.9020 H      5874  TIP5724     0.2052
 36534 H2           2.5910    -1.4210    55.6400 H      5874  TIP5724     0.2052
 36535 OH2         28.3070     9.3730   -49.5950 O.3    5875  TIP5725    -0.4105
 36536 H1          27.3820     9.1400   -49.5080 H      5875  TIP5725     0.2052
 36537 H2          28.3230    10.3260   -49.5060 H      5875  TIP5725     0.2052
 36538 OH2        -23.0870    20.1410    54.6230 O.3    5876  TIP5726    -0.4105
 36539 H1         -22.5740    20.4480    55.3700 H      5876  TIP5726     0.2052
 36540 H2         -23.0000    19.1880    54.6470 H      5876  TIP5726     0.2052
 36541 OH2        -30.9870    -8.8200   -44.1360 O.3    5877  TIP5727    -0.4105
 36542 H1         -31.6250    -8.2290   -43.7360 H      5877  TIP5727     0.2052
 36543 H2         -31.4430    -9.6580   -44.2000 H      5877  TIP5727     0.2052
 36544 OH2        -29.0130    26.6260    54.0580 O.3    5878  TIP5728    -0.4105
 36545 H1         -29.9580    26.4880    54.1180 H      5878  TIP5728     0.2052
 36546 H2         -28.9150    27.5740    53.9740 H      5878  TIP5728     0.2052
 36547 OH2         24.9220    28.0410   -19.4480 O.3    5879  TIP5729    -0.4105
 36548 H1          24.3070    28.3500   -20.1120 H      5879  TIP5729     0.2052
 36549 H2          25.6260    28.6900   -19.4520 H      5879  TIP5729     0.2052
 36550 OH2          0.1430   -22.4250   -17.9550 O.3    5880  TIP5730    -0.4105
 36551 H1           0.1860   -23.3640   -18.1360 H      5880  TIP5730     0.2052
 36552 H2           0.8890   -22.0550   -18.4290 H      5880  TIP5730     0.2052
 36553 OH2        -32.4870    -2.4650   -55.4640 O.3    5881  TIP5731    -0.4105
 36554 H1         -32.4630    -1.5690   -55.8010 H      5881  TIP5731     0.2052
 36555 H2         -31.6430    -2.8390   -55.7180 H      5881  TIP5731     0.2052
 36556 OH2        -26.4710     2.1590   -31.9510 O.3    5882  TIP5732    -0.4105
 36557 H1         -25.5610     1.9160   -32.1240 H      5882  TIP5732     0.2052
 36558 H2         -26.7110     2.7270   -32.6830 H      5882  TIP5732     0.2052
 36559 OH2        -30.3060   -19.4580   -27.2660 O.3    5883  TIP5733    -0.4105
 36560 H1         -30.4430   -20.2920   -26.8160 H      5883  TIP5733     0.2052
 36561 H2         -30.4410   -18.7950   -26.5890 H      5883  TIP5733     0.2052
 36562 OH2          1.6180    -4.2600   -41.1160 O.3    5884  TIP5734    -0.4105
 36563 H1           1.9370    -3.8160   -41.9020 H      5884  TIP5734     0.2052
 36564 H2           1.0480    -3.6190   -40.6930 H      5884  TIP5734     0.2052
 36565 OH2        -15.7130    18.8280    52.7810 O.3    5885  TIP5735    -0.4105
 36566 H1         -14.9110    18.9160    53.2960 H      5885  TIP5735     0.2052
 36567 H2         -16.0630    17.9720    53.0250 H      5885  TIP5735     0.2052
 36568 OH2        -11.5390   -13.6350    27.8790 O.3    5886  TIP5736    -0.4105
 36569 H1         -11.9100   -13.1300    27.1560 H      5886  TIP5736     0.2052
 36570 H2         -10.5920   -13.5310    27.7830 H      5886  TIP5736     0.2052
 36571 OH2         17.3930    26.8050   -45.5260 O.3    5887  TIP5737    -0.4105
 36572 H1          17.0550    27.1850   -44.7150 H      5887  TIP5737     0.2052
 36573 H2          17.6300    25.9080   -45.2900 H      5887  TIP5737     0.2052
 36574 OH2         20.3780    -6.7330   -11.7790 O.3    5888  TIP5738    -0.4105
 36575 H1          19.5200    -6.8420   -12.1890 H      5888  TIP5738     0.2052
 36576 H2          20.1950    -6.2850   -10.9530 H      5888  TIP5738     0.2052
 36577 OH2        -32.5240   -22.4850   -44.2310 O.3    5889  TIP5739    -0.4105
 36578 H1         -32.1810   -22.5090   -43.3380 H      5889  TIP5739     0.2052
 36579 H2         -32.9800   -21.6450   -44.2910 H      5889  TIP5739     0.2052
 36580 OH2         31.5450     2.9520   -44.6060 O.3    5890  TIP5740    -0.4105
 36581 H1          32.2870     2.3910   -44.8340 H      5890  TIP5740     0.2052
 36582 H2          31.8200     3.4000   -43.8060 H      5890  TIP5740     0.2052
 36583 OH2        -14.5120    32.1470   -45.9980 O.3    5891  TIP5741    -0.4105
 36584 H1         -14.7060    31.2180   -45.8790 H      5891  TIP5741     0.2052
 36585 H2         -14.8490    32.3530   -46.8700 H      5891  TIP5741     0.2052
 36586 OH2         14.0820     3.1800   -52.3930 O.3    5892  TIP5742    -0.4105
 36587 H1          14.3910     2.8760   -51.5400 H      5892  TIP5742     0.2052
 36588 H2          13.8590     4.1000   -52.2540 H      5892  TIP5742     0.2052
 36589 OH2         12.2750    -0.5330   -37.7770 O.3    5893  TIP5743    -0.4105
 36590 H1          12.9310    -0.4780   -37.0810 H      5893  TIP5743     0.2052
 36591 H2          11.6340    -1.1660   -37.4530 H      5893  TIP5743     0.2052
 36592 OH2         12.7590    31.0280   -49.1470 O.3    5894  TIP5744    -0.4105
 36593 H1          11.8690    30.7490   -48.9310 H      5894  TIP5744     0.2052
 36594 H2          13.2890    30.7320   -48.4070 H      5894  TIP5744     0.2052
 36595 OH2          7.5620     5.6180    53.0160 O.3    5895  TIP5745    -0.4105
 36596 H1           7.2150     6.5100    53.0300 H      5895  TIP5745     0.2052
 36597 H2           8.1270     5.5680    53.7870 H      5895  TIP5745     0.2052
 36598 OH2         14.9580   -20.3990   -19.3060 O.3    5896  TIP5746    -0.4105
 36599 H1          15.1510   -21.3050   -19.0670 H      5896  TIP5746     0.2052
 36600 H2          14.0030   -20.3390   -19.2720 H      5896  TIP5746     0.2052
 36601 OH2        -15.1360   -26.9530    29.3440 O.3    5897  TIP5747    -0.4105
 36602 H1         -14.2400   -27.2620    29.2100 H      5897  TIP5747     0.2052
 36603 H2         -15.1360   -26.0600    28.9980 H      5897  TIP5747     0.2052
 36604 OH2         27.7480    14.7370   -30.6800 O.3    5898  TIP5748    -0.4105
 36605 H1          27.8890    15.5360   -30.1730 H      5898  TIP5748     0.2052
 36606 H2          28.4490    14.1480   -30.4000 H      5898  TIP5748     0.2052
 36607 OH2        -28.5400   -14.0860    43.5890 O.3    5899  TIP5749    -0.4105
 36608 H1         -28.3430   -13.3840    44.2080 H      5899  TIP5749     0.2052
 36609 H2         -27.7050   -14.2660    43.1570 H      5899  TIP5749     0.2052
 36610 OH2         -0.9410     6.4580   -16.8480 O.3    5900  TIP5750    -0.4105
 36611 H1          -1.3100     6.7510   -16.0150 H      5900  TIP5750     0.2052
 36612 H2          -1.5820     6.7330   -17.5040 H      5900  TIP5750     0.2052
 36613 OH2         27.3690   -28.9310    42.1050 O.3    5901  TIP5751    -0.4105
 36614 H1          27.3960   -28.4720    41.2650 H      5901  TIP5751     0.2052
 36615 H2          26.5410   -29.4130    42.0880 H      5901  TIP5751     0.2052
 36616 OH2         29.2380   -10.9570   -27.0280 O.3    5902  TIP5752    -0.4105
 36617 H1          28.8990   -10.7160   -27.8900 H      5902  TIP5752     0.2052
 36618 H2          29.3320   -11.9090   -27.0650 H      5902  TIP5752     0.2052
 36619 OH2        -11.9050    15.8770    46.6340 O.3    5903  TIP5753    -0.4105
 36620 H1         -11.7930    16.0740    47.5640 H      5903  TIP5753     0.2052
 36621 H2         -12.4780    16.5720    46.3090 H      5903  TIP5753     0.2052
 36622 OH2         -0.8640   -24.2510   -39.8320 O.3    5904  TIP5754    -0.4105
 36623 H1          -1.4020   -24.7000   -39.1810 H      5904  TIP5754     0.2052
 36624 H2          -1.0940   -24.6670   -40.6630 H      5904  TIP5754     0.2052
 36625 OH2         24.4190    27.2440    52.2790 O.3    5905  TIP5755    -0.4105
 36626 H1          25.1160    27.7920    51.9170 H      5905  TIP5755     0.2052
 36627 H2          24.2360    26.6030    51.5910 H      5905  TIP5755     0.2052
 36628 OH2        -12.5500   -32.1610   -49.6240 O.3    5906  TIP5756    -0.4105
 36629 H1         -12.7980   -31.6040   -50.3620 H      5906  TIP5756     0.2052
 36630 H2         -13.3810   -32.4750   -49.2700 H      5906  TIP5756     0.2052
 36631 OH2         13.7780     3.3040   -22.1270 O.3    5907  TIP5757    -0.4105
 36632 H1          14.0320     3.9660   -22.7700 H      5907  TIP5757     0.2052
 36633 H2          13.8160     2.4760   -22.6070 H      5907  TIP5757     0.2052
 36634 OH2         26.2370    31.1120    42.4200 O.3    5908  TIP5758    -0.4105
 36635 H1          25.7470    30.9740    41.6100 H      5908  TIP5758     0.2052
 36636 H2          26.0620    30.3290    42.9430 H      5908  TIP5758     0.2052
 36637 OH2         -4.2230     8.4040   -51.0760 O.3    5909  TIP5759    -0.4105
 36638 H1          -3.8810     7.5270   -51.2510 H      5909  TIP5759     0.2052
 36639 H2          -4.9430     8.2630   -50.4610 H      5909  TIP5759     0.2052
 36640 OH2        -12.3470     4.4680   -31.6800 O.3    5910  TIP5760    -0.4105
 36641 H1         -12.3370     5.0660   -30.9330 H      5910  TIP5760     0.2052
 36642 H2         -11.8870     3.6880   -31.3690 H      5910  TIP5760     0.2052
 36643 OH2         13.8740    19.9640   -49.8870 O.3    5911  TIP5761    -0.4105
 36644 H1          14.7240    19.5450   -50.0240 H      5911  TIP5761     0.2052
 36645 H2          13.6740    19.8040   -48.9650 H      5911  TIP5761     0.2052
 36646 OH2         -1.5800   -18.2220   -28.0990 O.3    5912  TIP5762    -0.4105
 36647 H1          -2.0780   -17.6650   -28.6970 H      5912  TIP5762     0.2052
 36648 H2          -0.6710   -18.1270   -28.3850 H      5912  TIP5762     0.2052
 36649 OH2          3.5370   -29.6110    21.9100 O.3    5913  TIP5763    -0.4105
 36650 H1           3.9350   -30.3860    21.5120 H      5913  TIP5763     0.2052
 36651 H2           3.8570   -28.8790    21.3830 H      5913  TIP5763     0.2052
 36652 OH2        -20.3260     7.5320   -39.9560 O.3    5914  TIP5764    -0.4105
 36653 H1         -20.4370     8.4490   -40.2080 H      5914  TIP5764     0.2052
 36654 H2         -20.7260     7.0360   -40.6700 H      5914  TIP5764     0.2052
 36655 OH2          5.5010    31.4000   -53.0670 O.3    5915  TIP5765    -0.4105
 36656 H1           5.0340    30.5760   -53.2050 H      5915  TIP5765     0.2052
 36657 H2           5.3080    31.9190   -53.8470 H      5915  TIP5765     0.2052
 36658 OH2         -9.4180    27.5630    46.5510 O.3    5916  TIP5766    -0.4105
 36659 H1          -9.4190    27.4190    47.4970 H      5916  TIP5766     0.2052
 36660 H2          -8.5200    27.8280    46.3490 H      5916  TIP5766     0.2052
 36661 OH2          8.9170    -1.8340   -39.6330 O.3    5917  TIP5767    -0.4105
 36662 H1           8.2610    -2.4540   -39.9500 H      5917  TIP5767     0.2052
 36663 H2           9.1180    -2.1310   -38.7450 H      5917  TIP5767     0.2052
 36664 OH2         21.1460   -24.8970    41.6220 O.3    5918  TIP5768    -0.4105
 36665 H1          21.8060   -25.0000    40.9370 H      5918  TIP5768     0.2052
 36666 H2          21.6070   -25.1100    42.4330 H      5918  TIP5768     0.2052
 36667 OH2          4.7580    -1.9060   -15.6220 O.3    5919  TIP5769    -0.4105
 36668 H1           4.1390    -1.1950   -15.4540 H      5919  TIP5769     0.2052
 36669 H2           5.5560    -1.6420   -15.1640 H      5919  TIP5769     0.2052
 36670 OH2        -31.2910    -0.3260   -26.4350 O.3    5920  TIP5770    -0.4105
 36671 H1         -30.8390    -0.4670   -27.2660 H      5920  TIP5770     0.2052
 36672 H2         -30.7620     0.3300   -25.9810 H      5920  TIP5770     0.2052
 36673 OH2          0.7370   -11.7550    33.0830 O.3    5921  TIP5771    -0.4105
 36674 H1          -0.0670   -12.1910    33.3640 H      5921  TIP5771     0.2052
 36675 H2           0.9290   -12.1350    32.2260 H      5921  TIP5771     0.2052
 36676 OH2        -16.2880     8.4410    42.4200 O.3    5922  TIP5772    -0.4105
 36677 H1         -15.7780     8.8680    41.7320 H      5922  TIP5772     0.2052
 36678 H2         -15.8280     7.6180    42.5840 H      5922  TIP5772     0.2052
 36679 OH2         -1.9910    25.2050   -29.4820 O.3    5923  TIP5773    -0.4105
 36680 H1          -1.1610    24.7310   -29.5070 H      5923  TIP5773     0.2052
 36681 H2          -2.3570    25.0060   -28.6200 H      5923  TIP5773     0.2052
 36682 OH2          1.2200   -24.2670    34.2090 O.3    5924  TIP5774    -0.4105
 36683 H1           1.3810   -25.2100    34.2530 H      5924  TIP5774     0.2052
 36684 H2           1.4630   -23.9410    35.0750 H      5924  TIP5774     0.2052
 36685 OH2         30.5790    29.9970    34.4550 O.3    5925  TIP5775    -0.4105
 36686 H1          29.8150    30.1810    33.9070 H      5925  TIP5775     0.2052
 36687 H2          30.3910    29.1470    34.8520 H      5925  TIP5775     0.2052
 36688 OH2          9.8510    28.8770   -44.3980 O.3    5926  TIP5776    -0.4105
 36689 H1           9.1030    28.9580   -44.9900 H      5926  TIP5776     0.2052
 36690 H2          10.4050    28.2090   -44.8020 H      5926  TIP5776     0.2052
 36691 OH2         21.2650    30.5050    40.4370 O.3    5927  TIP5777    -0.4105
 36692 H1          20.4860    29.9530    40.5200 H      5927  TIP5777     0.2052
 36693 H2          21.2010    30.8780    39.5580 H      5927  TIP5777     0.2052
 36694 OH2         -0.8650    11.3000   -55.3620 O.3    5928  TIP5778    -0.4105
 36695 H1          -0.9330    12.2420   -55.5160 H      5928  TIP5778     0.2052
 36696 H2          -1.6330    11.0870   -54.8330 H      5928  TIP5778     0.2052
 36697 OH2        -13.3040   -26.3180   -37.0030 O.3    5929  TIP5779    -0.4105
 36698 H1         -12.3490   -26.3500   -37.0700 H      5929  TIP5779     0.2052
 36699 H2         -13.5060   -26.8190   -36.2130 H      5929  TIP5779     0.2052
 36700 OH2        -28.0300    12.3740    31.1110 O.3    5930  TIP5780    -0.4105
 36701 H1         -27.4980    11.7910    31.6530 H      5930  TIP5780     0.2052
 36702 H2         -27.3930    12.8810    30.6080 H      5930  TIP5780     0.2052
 36703 OH2         32.2470     9.7570   -16.6420 O.3    5931  TIP5781    -0.4105
 36704 H1          32.6460    10.1980   -15.8920 H      5931  TIP5781     0.2052
 36705 H2          32.9320     9.7510   -17.3100 H      5931  TIP5781     0.2052
 36706 OH2          7.3130   -27.0140   -47.1380 O.3    5932  TIP5782    -0.4105
 36707 H1           7.7160   -26.3410   -47.6850 H      5932  TIP5782     0.2052
 36708 H2           6.4510   -27.1560   -47.5300 H      5932  TIP5782     0.2052
 36709 OH2        -15.9660     6.0680   -36.6030 O.3    5933  TIP5783    -0.4105
 36710 H1         -15.4350     5.8980   -37.3800 H      5933  TIP5783     0.2052
 36711 H2         -16.7760     6.4470   -36.9440 H      5933  TIP5783     0.2052
 36712 OH2         14.9180   -27.6840   -31.1130 O.3    5934  TIP5784    -0.4105
 36713 H1          15.5740   -27.2660   -30.5560 H      5934  TIP5784     0.2052
 36714 H2          15.0460   -27.2870   -31.9750 H      5934  TIP5784     0.2052
 36715 OH2        -29.6940     8.8040   -21.7960 O.3    5935  TIP5785    -0.4105
 36716 H1         -29.6210     8.3110   -20.9790 H      5935  TIP5785     0.2052
 36717 H2         -29.7530     9.7190   -21.5210 H      5935  TIP5785     0.2052
 36718 OH2         -2.5430   -31.8020   -24.2420 O.3    5936  TIP5786    -0.4105
 36719 H1          -1.6460   -31.4830   -24.1480 H      5936  TIP5786     0.2052
 36720 H2          -2.9690   -31.5660   -23.4190 H      5936  TIP5786     0.2052
 36721 OH2          7.4410   -19.0080   -37.8280 O.3    5937  TIP5787    -0.4105
 36722 H1           8.2310   -18.4690   -37.8720 H      5937  TIP5787     0.2052
 36723 H2           7.5990   -19.7180   -38.4500 H      5937  TIP5787     0.2052
 36724 OH2        -15.2290   -23.0530   -45.3050 O.3    5938  TIP5788    -0.4105
 36725 H1         -15.3270   -23.7890   -45.9090 H      5938  TIP5788     0.2052
 36726 H2         -14.3950   -22.6520   -45.5480 H      5938  TIP5788     0.2052
 36727 OH2          2.6110    19.7290   -55.3960 O.3    5939  TIP5789    -0.4105
 36728 H1           1.6680    19.7890   -55.5500 H      5939  TIP5789     0.2052
 36729 H2           2.7610    20.2640   -54.6170 H      5939  TIP5789     0.2052
 36730 OH2        -22.0320   -10.6480   -55.0120 O.3    5940  TIP5790    -0.4105
 36731 H1         -22.6320    -9.9680   -54.7050 H      5940  TIP5790     0.2052
 36732 H2         -22.3680   -11.4570   -54.6250 H      5940  TIP5790     0.2052
 36733 OH2         16.1380    -1.6390   -28.9270 O.3    5941  TIP5791    -0.4105
 36734 H1          16.3430    -1.8170   -29.8450 H      5941  TIP5791     0.2052
 36735 H2          15.2480    -1.2860   -28.9440 H      5941  TIP5791     0.2052
 36736 OH2        -13.0990   -24.5410   -22.7760 O.3    5942  TIP5792    -0.4105
 36737 H1         -12.4130   -24.6580   -22.1190 H      5942  TIP5792     0.2052
 36738 H2         -12.6990   -23.9830   -23.4440 H      5942  TIP5792     0.2052
 36739 OH2        -24.3830   -12.2150    22.1990 O.3    5943  TIP5793    -0.4105
 36740 H1         -23.7050   -11.7700    21.6910 H      5943  TIP5793     0.2052
 36741 H2         -23.9280   -12.5310    22.9810 H      5943  TIP5793     0.2052
 36742 OH2        -28.4560   -28.8530   -40.5340 O.3    5944  TIP5794    -0.4105
 36743 H1         -28.6890   -29.0140   -39.6190 H      5944  TIP5794     0.2052
 36744 H2         -29.2380   -29.0990   -41.0280 H      5944  TIP5794     0.2052
 36745 OH2        -26.4740    31.9670    43.5930 O.3    5945  TIP5795    -0.4105
 36746 H1         -26.0800    32.6470    44.1390 H      5945  TIP5795     0.2052
 36747 H2         -26.1030    32.1130    42.7230 H      5945  TIP5795     0.2052
 36748 OH2         20.8460    10.8000   -36.6810 O.3    5946  TIP5796    -0.4105
 36749 H1          20.3110    11.3870   -36.1450 H      5946  TIP5796     0.2052
 36750 H2          21.4690    11.3780   -37.1210 H      5946  TIP5796     0.2052
 36751 OH2         -7.8460    26.4130    32.2490 O.3    5947  TIP5797    -0.4105
 36752 H1          -8.0380    27.1380    32.8440 H      5947  TIP5797     0.2052
 36753 H2          -7.4770    25.7320    32.8120 H      5947  TIP5797     0.2052
 36754 OH2        -24.3460   -32.0390    44.1080 O.3    5948  TIP5798    -0.4105
 36755 H1         -23.6900   -31.5490    44.6040 H      5948  TIP5798     0.2052
 36756 H2         -24.3250   -31.6530    43.2330 H      5948  TIP5798     0.2052
 36757 OH2        -11.0500     1.6780    55.3460 O.3    5949  TIP5799    -0.4105
 36758 H1         -11.4510     2.5030    55.6190 H      5949  TIP5799     0.2052
 36759 H2         -10.1740     1.6980    55.7320 H      5949  TIP5799     0.2052
 36760 OH2         -5.5660    -3.8230   -41.8120 O.3    5950  TIP5800    -0.4105
 36761 H1          -5.6570    -3.7430   -42.7620 H      5950  TIP5800     0.2052
 36762 H2          -6.4420    -3.6440   -41.4710 H      5950  TIP5800     0.2052
 36763 OH2        -28.2480    15.8120    28.5880 O.3    5951  TIP5801    -0.4105
 36764 H1         -28.3930    16.7500    28.7130 H      5951  TIP5801     0.2052
 36765 H2         -28.7910    15.5840    27.8330 H      5951  TIP5801     0.2052
 36766 OH2         25.7310   -26.9270   -50.9840 O.3    5952  TIP5802    -0.4105
 36767 H1          26.5050   -27.4350   -51.2270 H      5952  TIP5802     0.2052
 36768 H2          26.0800   -26.0930   -50.6690 H      5952  TIP5802     0.2052
 36769 OH2         23.4670     6.8240    49.9370 O.3    5953  TIP5803    -0.4105
 36770 H1          24.0220     7.2990    49.3190 H      5953  TIP5803     0.2052
 36771 H2          23.4180     7.3950    50.7040 H      5953  TIP5803     0.2052
 36772 OH2        -26.6880    -9.6720    55.3390 O.3    5954  TIP5804    -0.4105
 36773 H1         -26.1790   -10.4770    55.4360 H      5954  TIP5804     0.2052
 36774 H2         -27.4630    -9.9370    54.8430 H      5954  TIP5804     0.2052
 36775 OH2         13.9030    23.2860   -31.0540 O.3    5955  TIP5805    -0.4105
 36776 H1          13.2990    22.6010   -30.7680 H      5955  TIP5805     0.2052
 36777 H2          13.5010    24.1010   -30.7540 H      5955  TIP5805     0.2052
 36778 OH2        -16.8860    18.2650   -43.3190 O.3    5956  TIP5806    -0.4105
 36779 H1         -17.8040    18.5310   -43.3650 H      5956  TIP5806     0.2052
 36780 H2         -16.4110    19.0750   -43.1300 H      5956  TIP5806     0.2052
 36781 OH2        -31.6730    21.8950    40.3540 O.3    5957  TIP5807    -0.4105
 36782 H1         -30.9280    21.7900    40.9460 H      5957  TIP5807     0.2052
 36783 H2         -32.2800    22.4610    40.8310 H      5957  TIP5807     0.2052
 36784 OH2          8.1730   -13.6520   -23.6020 O.3    5958  TIP5808    -0.4105
 36785 H1           8.4230   -14.0160   -22.7530 H      5958  TIP5808     0.2052
 36786 H2           8.1580   -14.4060   -24.1910 H      5958  TIP5808     0.2052
 36787 OH2          4.5630     5.2590    36.2540 O.3    5959  TIP5809    -0.4105
 36788 H1           4.0510     4.5910    36.7090 H      5959  TIP5809     0.2052
 36789 H2           3.9170     5.7610    35.7580 H      5959  TIP5809     0.2052
 36790 OH2          3.6760    28.3240    46.0880 O.3    5960  TIP5810    -0.4105
 36791 H1           2.9220    28.7280    46.5170 H      5960  TIP5810     0.2052
 36792 H2           4.2890    29.0450    45.9500 H      5960  TIP5810     0.2052
 36793 OH2          3.5750     1.0160    28.4940 O.3    5961  TIP5811    -0.4105
 36794 H1           3.5640     0.7450    27.5760 H      5961  TIP5811     0.2052
 36795 H2           2.8900     0.4920    28.9080 H      5961  TIP5811     0.2052
 36796 OH2        -14.2470   -18.5650   -45.3300 O.3    5962  TIP5812    -0.4105
 36797 H1         -14.8770   -19.2460   -45.0920 H      5962  TIP5812     0.2052
 36798 H2         -13.5990   -18.5810   -44.6260 H      5962  TIP5812     0.2052
 36799 OH2        -23.9960     6.6780   -34.1280 O.3    5963  TIP5813    -0.4105
 36800 H1         -23.5560     5.9270   -33.7290 H      5963  TIP5813     0.2052
 36801 H2         -24.6100     6.9800   -33.4580 H      5963  TIP5813     0.2052
 36802 OH2         18.8620   -14.5210    22.8910 O.3    5964  TIP5814    -0.4105
 36803 H1          17.9850   -14.2850    23.1940 H      5964  TIP5814     0.2052
 36804 H2          19.0020   -13.9780    22.1150 H      5964  TIP5814     0.2052
 36805 OH2         -6.4780   -23.3340   -34.6710 O.3    5965  TIP5815    -0.4105
 36806 H1          -6.4680   -24.0970   -34.0930 H      5965  TIP5815     0.2052
 36807 H2          -6.9930   -22.6810   -34.1970 H      5965  TIP5815     0.2052
 36808 OH2         16.1690    12.3410    33.0400 O.3    5966  TIP5816    -0.4105
 36809 H1          15.3640    12.0330    32.6230 H      5966  TIP5816     0.2052
 36810 H2          16.0750    13.2930    33.0690 H      5966  TIP5816     0.2052
 36811 OH2        -19.7020   -28.4880    37.4410 O.3    5967  TIP5817    -0.4105
 36812 H1         -19.4540   -29.2950    37.8920 H      5967  TIP5817     0.2052
 36813 H2         -19.4390   -28.6320    36.5310 H      5967  TIP5817     0.2052
 36814 OH2         11.4490   -24.1040    21.0830 O.3    5968  TIP5818    -0.4105
 36815 H1          11.3880   -23.1970    21.3850 H      5968  TIP5818     0.2052
 36816 H2          10.5750   -24.3050    20.7480 H      5968  TIP5818     0.2052
 36817 OH2         -3.7280    20.8910   -45.7870 O.3    5969  TIP5819    -0.4105
 36818 H1          -3.9540    20.4180   -44.9860 H      5969  TIP5819     0.2052
 36819 H2          -3.8110    21.8150   -45.5520 H      5969  TIP5819     0.2052
 36820 OH2        -20.5180   -26.1920   -41.9680 O.3    5970  TIP5820    -0.4105
 36821 H1         -20.6200   -27.1280   -41.7970 H      5970  TIP5820     0.2052
 36822 H2         -19.8450   -25.9070   -41.3500 H      5970  TIP5820     0.2052
 36823 OH2        -13.4400    14.8470   -33.1930 O.3    5971  TIP5821    -0.4105
 36824 H1         -12.7010    14.8830   -33.7990 H      5971  TIP5821     0.2052
 36825 H2         -13.1390    15.3230   -32.4190 H      5971  TIP5821     0.2052
 36826 OH2         -8.6600     3.7520   -46.8270 O.3    5972  TIP5822    -0.4105
 36827 H1          -9.4480     4.1330   -47.2150 H      5972  TIP5822     0.2052
 36828 H2          -8.0260     3.7320   -47.5440 H      5972  TIP5822     0.2052
 36829 OH2        -32.9600    17.1830    33.7910 O.3    5973  TIP5823    -0.4105
 36830 H1         -32.0630    16.8570    33.8620 H      5973  TIP5823     0.2052
 36831 H2         -33.1340    17.5930    34.6390 H      5973  TIP5823     0.2052
 36832 OH2        -29.9090    24.2310    46.1400 O.3    5974  TIP5824    -0.4105
 36833 H1         -29.3420    25.0020    46.1090 H      5974  TIP5824     0.2052
 36834 H2         -30.5220    24.3540    45.4150 H      5974  TIP5824     0.2052
 36835 OH2         20.4830    27.9160    37.4410 O.3    5975  TIP5825    -0.4105
 36836 H1          21.2440    27.8600    36.8620 H      5975  TIP5825     0.2052
 36837 H2          20.4470    27.0620    37.8720 H      5975  TIP5825     0.2052
 36838 OH2         15.8390   -27.8570    45.2590 O.3    5976  TIP5826    -0.4105
 36839 H1          15.3650   -28.3790    44.6110 H      5976  TIP5826     0.2052
 36840 H2          15.8960   -26.9840    44.8700 H      5976  TIP5826     0.2052
 36841 OH2         -4.8540    -3.8090   -51.3300 O.3    5977  TIP5827    -0.4105
 36842 H1          -5.3070    -3.3620   -52.0460 H      5977  TIP5827     0.2052
 36843 H2          -4.2450    -3.1550   -50.9860 H      5977  TIP5827     0.2052
 36844 OH2        -16.0450   -17.4210    30.7450 O.3    5978  TIP5828    -0.4105
 36845 H1         -15.5500   -17.8210    30.0300 H      5978  TIP5828     0.2052
 36846 H2         -16.2470   -16.5390    30.4320 H      5978  TIP5828     0.2052
 36847 OH2         12.1110    21.4170   -36.9190 O.3    5979  TIP5829    -0.4105
 36848 H1          12.8420    21.3290   -36.3080 H      5979  TIP5829     0.2052
 36849 H2          12.3350    22.1780   -37.4540 H      5979  TIP5829     0.2052
 36850 OH2        -15.8360     7.0910   -41.9300 O.3    5980  TIP5830    -0.4105
 36851 H1         -15.8960     6.2220   -41.5330 H      5980  TIP5830     0.2052
 36852 H2         -14.8960     7.2660   -41.9820 H      5980  TIP5830     0.2052
 36853 OH2         10.8970   -23.7360    52.7600 O.3    5981  TIP5831    -0.4105
 36854 H1          11.8040   -23.7260    52.4540 H      5981  TIP5831     0.2052
 36855 H2          10.3820   -23.4900    51.9910 H      5981  TIP5831     0.2052
 36856 OH2        -18.1270   -20.7930    46.6290 O.3    5982  TIP5832    -0.4105
 36857 H1         -18.8770   -20.4040    46.1790 H      5982  TIP5832     0.2052
 36858 H2         -17.6630   -20.0470    47.0100 H      5982  TIP5832     0.2052
 36859 OH2        -26.4670    -2.3240   -53.3790 O.3    5983  TIP5833    -0.4105
 36860 H1         -26.1870    -3.2390   -53.3870 H      5983  TIP5833     0.2052
 36861 H2         -26.1060    -1.9690   -52.5670 H      5983  TIP5833     0.2052
 36862 OH2        -25.3740    -3.4910    24.1220 O.3    5984  TIP5834    -0.4105
 36863 H1         -24.4800    -3.2170    24.3280 H      5984  TIP5834     0.2052
 36864 H2         -25.2910    -3.9880    23.3090 H      5984  TIP5834     0.2052
 36865 OH2        -29.2870   -13.1850   -19.9960 O.3    5985  TIP5835    -0.4105
 36866 H1         -28.7310   -13.7870   -20.4900 H      5985  TIP5835     0.2052
 36867 H2         -30.1800   -13.4380   -20.2280 H      5985  TIP5835     0.2052
 36868 OH2         18.8060    11.9050   -35.1430 O.3    5986  TIP5836    -0.4105
 36869 H1          18.5690    11.4500   -34.3350 H      5986  TIP5836     0.2052
 36870 H2          18.1290    11.6500   -35.7700 H      5986  TIP5836     0.2052
 36871 OH2         18.6430    21.9080    34.6500 O.3    5987  TIP5837    -0.4105
 36872 H1          18.4650    22.8290    34.4570 H      5987  TIP5837     0.2052
 36873 H2          18.0030    21.6770    35.3240 H      5987  TIP5837     0.2052
 36874 OH2        -23.5620    11.1680    46.4220 O.3    5988  TIP5838    -0.4105
 36875 H1         -23.4500    12.0950    46.2140 H      5988  TIP5838     0.2052
 36876 H2         -22.6720    10.8140    46.4300 H      5988  TIP5838     0.2052
 36877 OH2        -15.2270   -10.5250   -46.3550 O.3    5989  TIP5839    -0.4105
 36878 H1         -15.6640    -9.8020   -46.8050 H      5989  TIP5839     0.2052
 36879 H2         -15.5000   -11.3070   -46.8350 H      5989  TIP5839     0.2052
 36880 OH2        -24.1670    14.6100    23.8490 O.3    5990  TIP5840    -0.4105
 36881 H1         -23.2950    14.9780    23.7060 H      5990  TIP5840     0.2052
 36882 H2         -24.7570    15.2020    23.3810 H      5990  TIP5840     0.2052
 36883 OH2        -18.7090     1.2850   -40.9090 O.3    5991  TIP5841    -0.4105
 36884 H1         -18.5360     0.3620   -40.7250 H      5991  TIP5841     0.2052
 36885 H2         -18.5830     1.7250   -40.0680 H      5991  TIP5841     0.2052
 36886 OH2        -12.1570   -27.4220    33.9310 O.3    5992  TIP5842    -0.4105
 36887 H1         -11.8150   -26.7500    33.3400 H      5992  TIP5842     0.2052
 36888 H2         -12.0630   -28.2400    33.4440 H      5992  TIP5842     0.2052
 36889 OH2        -11.6680    23.9930   -37.2510 O.3    5993  TIP5843    -0.4105
 36890 H1         -12.5060    24.4170   -37.0660 H      5993  TIP5843     0.2052
 36891 H2         -11.6170    23.2760   -36.6190 H      5993  TIP5843     0.2052
 36892 OH2         19.0280    18.8250    44.6570 O.3    5994  TIP5844    -0.4105
 36893 H1          19.4340    19.6570    44.4160 H      5994  TIP5844     0.2052
 36894 H2          19.1430    18.7660    45.6050 H      5994  TIP5844     0.2052
 36895 OH2        -22.5870   -30.9230   -44.5090 O.3    5995  TIP5845    -0.4105
 36896 H1         -22.6610   -31.2480   -45.4060 H      5995  TIP5845     0.2052
 36897 H2         -22.1530   -30.0740   -44.5970 H      5995  TIP5845     0.2052
 36898 OH2          0.4710    -9.7070    42.6850 O.3    5996  TIP5846    -0.4105
 36899 H1           1.1200   -10.1640    42.1510 H      5996  TIP5846     0.2052
 36900 H2          -0.3350    -9.7450    42.1700 H      5996  TIP5846     0.2052
 36901 OH2          1.1000    22.9700   -42.7830 O.3    5997  TIP5847    -0.4105
 36902 H1           0.4000    22.3330   -42.9250 H      5997  TIP5847     0.2052
 36903 H2           0.6490    23.8110   -42.7170 H      5997  TIP5847     0.2052
 36904 OH2         -5.5290     6.8760    39.5470 O.3    5998  TIP5848    -0.4105
 36905 H1          -5.9930     6.1480    39.1340 H      5998  TIP5848     0.2052
 36906 H2          -4.6240     6.7840    39.2500 H      5998  TIP5848     0.2052
 36907 OH2        -14.2770    10.3630   -47.9860 O.3    5999  TIP5849    -0.4105
 36908 H1         -13.7310     9.5800   -48.0580 H      5999  TIP5849     0.2052
 36909 H2         -14.4770    10.6000   -48.8920 H      5999  TIP5849     0.2052
 36910 OH2        -19.7560   -21.8650   -29.1630 O.3    6000  TIP5850    -0.4105
 36911 H1         -18.8400   -21.7940   -29.4310 H      6000  TIP5850     0.2052
 36912 H2         -20.2440   -21.4150   -29.8530 H      6000  TIP5850     0.2052
 36913 OH2        -15.4550   -19.7920   -16.0700 O.3    6001  TIP5851    -0.4105
 36914 H1         -15.7530   -20.0450   -16.9430 H      6001  TIP5851     0.2052
 36915 H2         -14.9090   -20.5230   -15.7810 H      6001  TIP5851     0.2052
 36916 OH2         23.1370    23.2760    33.3490 O.3    6002  TIP5852    -0.4105
 36917 H1          22.8860    23.8130    32.5980 H      6002  TIP5852     0.2052
 36918 H2          23.1320    22.3790    33.0150 H      6002  TIP5852     0.2052
 36919 OH2         10.0010   -14.3890   -42.9200 O.3    6003  TIP5853    -0.4105
 36920 H1           9.5680   -15.0590   -43.4480 H      6003  TIP5853     0.2052
 36921 H2          10.3900   -13.7930   -43.5590 H      6003  TIP5853     0.2052
 36922 OH2        -15.0630    29.6630   -27.9960 O.3    6004  TIP5854    -0.4105
 36923 H1         -15.3250    30.5330   -28.2990 H      6004  TIP5854     0.2052
 36924 H2         -14.1080    29.6670   -28.0560 H      6004  TIP5854     0.2052
 36925 OH2         19.9290    -5.3800   -34.8280 O.3    6005  TIP5855    -0.4105
 36926 H1          20.0300    -5.4560   -33.8790 H      6005  TIP5855     0.2052
 36927 H2          19.4260    -4.5750   -34.9520 H      6005  TIP5855     0.2052
 36928 OH2        -25.7560     6.6730   -19.7890 O.3    6006  TIP5856    -0.4105
 36929 H1         -24.8410     6.9530   -19.7510 H      6006  TIP5856     0.2052
 36930 H2         -26.2590     7.4770   -19.6620 H      6006  TIP5856     0.2052
 36931 OH2        -10.3910    23.1370   -25.3890 O.3    6007  TIP5857    -0.4105
 36932 H1          -9.7520    22.7080   -24.8190 H      6007  TIP5857     0.2052
 36933 H2         -10.0600    24.0290   -25.4910 H      6007  TIP5857     0.2052
 36934 OH2         -9.8760   -20.5330    24.2750 O.3    6008  TIP5858    -0.4105
 36935 H1          -9.7930   -20.6630    25.2190 H      6008  TIP5858     0.2052
 36936 H2          -9.0850   -20.0540    24.0280 H      6008  TIP5858     0.2052
 36937 OH2         24.8660    14.6190    33.1130 O.3    6009  TIP5859    -0.4105
 36938 H1          24.7010    13.7110    33.3660 H      6009  TIP5859     0.2052
 36939 H2          25.1560    15.0440    33.9200 H      6009  TIP5859     0.2052
 36940 OH2        -20.9330    -7.0270    44.0730 O.3    6010  TIP5860    -0.4105
 36941 H1         -21.5170    -7.7590    44.2680 H      6010  TIP5860     0.2052
 36942 H2         -20.0650    -7.4250    44.0030 H      6010  TIP5860     0.2052
 36943 OH2        -25.5800   -28.0900   -22.5490 O.3    6011  TIP5861    -0.4105
 36944 H1         -24.8170   -27.5610   -22.3160 H      6011  TIP5861     0.2052
 36945 H2         -25.2120   -28.8940   -22.9160 H      6011  TIP5861     0.2052
 36946 OH2         -3.4060     5.8130   -50.6780 O.3    6012  TIP5862    -0.4105
 36947 H1          -3.6440     5.3460   -51.4790 H      6012  TIP5862     0.2052
 36948 H2          -3.0680     5.1330   -50.0950 H      6012  TIP5862     0.2052
 36949 OH2         16.1150   -20.0160   -35.8050 O.3    6013  TIP5863    -0.4105
 36950 H1          16.6290   -19.6250   -35.0990 H      6013  TIP5863     0.2052
 36951 H2          15.5950   -20.6960   -35.3760 H      6013  TIP5863     0.2052
 36952 OH2          2.4540    -0.2250   -14.5660 O.3    6014  TIP5864    -0.4105
 36953 H1           2.0160     0.6250   -14.6060 H      6014  TIP5864     0.2052
 36954 H2           3.0620    -0.1470   -13.8300 H      6014  TIP5864     0.2052
 36955 OH2         32.5500     3.3220   -22.6310 O.3    6015  TIP5865    -0.4105
 36956 H1          33.2770     3.2980   -22.0090 H      6015  TIP5865     0.2052
 36957 H2          31.7980     3.6020   -22.1100 H      6015  TIP5865     0.2052
 36958 OH2         14.9620    16.4440    27.9820 O.3    6016  TIP5866    -0.4105
 36959 H1          14.2660    15.8260    28.2030 H      6016  TIP5866     0.2052
 36960 H2          14.5820    17.3050    28.1510 H      6016  TIP5866     0.2052
 36961 OH2        -13.6560     6.1160    35.2310 O.3    6017  TIP5867    -0.4105
 36962 H1         -14.3310     6.7880    35.1320 H      6017  TIP5867     0.2052
 36963 H2         -12.8310     6.5820    35.0940 H      6017  TIP5867     0.2052
 36964 OH2         16.6720   -19.2050   -28.1090 O.3    6018  TIP5868    -0.4105
 36965 H1          16.6420   -19.5280   -29.0100 H      6018  TIP5868     0.2052
 36966 H2          15.8900   -18.6580   -28.0250 H      6018  TIP5868     0.2052
 36967 OH2        -10.2650    17.6050   -44.0630 O.3    6019  TIP5869    -0.4105
 36968 H1         -11.0470    18.0060   -43.6850 H      6019  TIP5869     0.2052
 36969 H2         -10.5990    17.0250   -44.7470 H      6019  TIP5869     0.2052
 36970 OH2        -17.9000   -22.8070   -32.9990 O.3    6020  TIP5870    -0.4105
 36971 H1         -17.5030   -22.3800   -32.2390 H      6020  TIP5870     0.2052
 36972 H2         -18.6490   -23.2830   -32.6420 H      6020  TIP5870     0.2052
 36973 OH2        -27.6290   -29.7830    45.6200 O.3    6021  TIP5871    -0.4105
 36974 H1         -27.8970   -29.5060    44.7440 H      6021  TIP5871     0.2052
 36975 H2         -27.8810   -29.0570    46.1900 H      6021  TIP5871     0.2052
 36976 OH2         29.0150    18.1430   -52.4690 O.3    6022  TIP5872    -0.4105
 36977 H1          29.5780    17.6400   -53.0580 H      6022  TIP5872     0.2052
 36978 H2          29.4360    19.0000   -52.4100 H      6022  TIP5872     0.2052
 36979 OH2         12.7580   -25.2950   -48.0110 O.3    6023  TIP5873    -0.4105
 36980 H1          12.5250   -25.4150   -47.0900 H      6023  TIP5873     0.2052
 36981 H2          12.7200   -26.1750   -48.3840 H      6023  TIP5873     0.2052
 36982 OH2        -16.7720     5.6550    29.8810 O.3    6024  TIP5874    -0.4105
 36983 H1         -17.3390     5.1600    30.4720 H      6024  TIP5874     0.2052
 36984 H2         -16.7940     5.1620    29.0600 H      6024  TIP5874     0.2052
 36985 OH2          2.4930    29.2140    33.1300 O.3    6025  TIP5875    -0.4105
 36986 H1           2.9010    28.7840    33.8810 H      6025  TIP5875     0.2052
 36987 H2           1.7050    29.6250    33.4860 H      6025  TIP5875     0.2052
 36988 OH2        -21.7960     8.9920   -52.8730 O.3    6026  TIP5876    -0.4105
 36989 H1         -21.8260     8.7530   -53.8000 H      6026  TIP5876     0.2052
 36990 H2         -21.0180     9.5440   -52.7920 H      6026  TIP5876     0.2052
 36991 OH2         28.8850    -0.4580    35.5630 O.3    6027  TIP5877    -0.4105
 36992 H1          28.0130    -0.4910    35.1700 H      6027  TIP5877     0.2052
 36993 H2          28.7620     0.0190    36.3830 H      6027  TIP5877     0.2052
 36994 OH2         14.8600    -2.7890    31.3400 O.3    6028  TIP5878    -0.4105
 36995 H1          15.7490    -2.4600    31.4670 H      6028  TIP5878     0.2052
 36996 H2          14.8930    -3.6960    31.6460 H      6028  TIP5878     0.2052
 36997 OH2          5.5650    -9.0770   -51.0630 O.3    6029  TIP5879    -0.4105
 36998 H1           5.4510    -8.5840   -51.8760 H      6029  TIP5879     0.2052
 36999 H2           6.2830    -9.6830   -51.2490 H      6029  TIP5879     0.2052
 37000 OH2          7.0980    27.0470    47.6780 O.3    6030  TIP5880    -0.4105
 37001 H1           6.6270    27.8390    47.9380 H      6030  TIP5880     0.2052
 37002 H2           8.0030    27.3340    47.5590 H      6030  TIP5880     0.2052
 37003 OH2         10.6590     9.9650   -52.9600 O.3    6031  TIP5881    -0.4105
 37004 H1          10.1610    10.5070   -53.5720 H      6031  TIP5881     0.2052
 37005 H2          11.4550    10.4680   -52.7870 H      6031  TIP5881     0.2052
 37006 OH2         -8.9550    27.1680    26.5820 O.3    6032  TIP5882    -0.4105
 37007 H1          -9.3770    27.6280    25.8560 H      6032  TIP5882     0.2052
 37008 H2          -8.2590    27.7600    26.8690 H      6032  TIP5882     0.2052
 37009 OH2         -2.1090   -23.1430    40.8240 O.3    6033  TIP5883    -0.4105
 37010 H1          -3.0180   -23.4000    40.9770 H      6033  TIP5883     0.2052
 37011 H2          -2.0690   -22.2270    41.0990 H      6033  TIP5883     0.2052
 37012 OH2        -22.8710    19.1030   -31.0320 O.3    6034  TIP5884    -0.4105
 37013 H1         -22.9840    18.3770   -31.6460 H      6034  TIP5884     0.2052
 37014 H2         -22.2570    19.6930   -31.4680 H      6034  TIP5884     0.2052
 37015 OH2          9.5050    24.5920    39.0040 O.3    6035  TIP5885    -0.4105
 37016 H1           9.7590    25.5060    38.8780 H      6035  TIP5885     0.2052
 37017 H2           9.7420    24.1620    38.1820 H      6035  TIP5885     0.2052
 37018 OH2         12.8180    -9.8830    21.6490 O.3    6036  TIP5886    -0.4105
 37019 H1          13.0440    -9.2700    22.3490 H      6036  TIP5886     0.2052
 37020 H2          13.6430   -10.0410    21.1920 H      6036  TIP5886     0.2052
 37021 OH2         19.3320    30.3630   -31.0710 O.3    6037  TIP5887    -0.4105
 37022 H1          20.1520    29.8730   -31.1300 H      6037  TIP5887     0.2052
 37023 H2          19.5530    31.1390   -30.5550 H      6037  TIP5887     0.2052
 37024 OH2         23.4070    23.1690    51.5810 O.3    6038  TIP5888    -0.4105
 37025 H1          23.4870    22.8020    50.7000 H      6038  TIP5888     0.2052
 37026 H2          23.5840    22.4310    52.1650 H      6038  TIP5888     0.2052
 37027 OH2         -8.7640     4.9110   -41.7070 O.3    6039  TIP5889    -0.4105
 37028 H1          -8.2670     4.2360   -42.1690 H      6039  TIP5889     0.2052
 37029 H2          -8.1260     5.6040   -41.5350 H      6039  TIP5889     0.2052
 37030 OH2          4.6710    21.9920   -20.7150 O.3    6040  TIP5890    -0.4105
 37031 H1           4.6800    21.1450   -20.2680 H      6040  TIP5890     0.2052
 37032 H2           4.3530    22.6070   -20.0550 H      6040  TIP5890     0.2052
 37033 OH2         16.3200    16.1730    54.7930 O.3    6041  TIP5891    -0.4105
 37034 H1          17.2270    16.0230    54.5230 H      6041  TIP5891     0.2052
 37035 H2          16.3480    16.1540    55.7490 H      6041  TIP5891     0.2052
 37036 OH2        -27.8810    13.4520   -33.8420 O.3    6042  TIP5892    -0.4105
 37037 H1         -27.5000    12.8560   -33.1970 H      6042  TIP5892     0.2052
 37038 H2         -28.2130    14.1850   -33.3240 H      6042  TIP5892     0.2052
 37039 OH2        -15.6620     8.6740   -52.1850 O.3    6043  TIP5893    -0.4105
 37040 H1         -16.5110     9.0750   -52.3750 H      6043  TIP5893     0.2052
 37041 H2         -15.8190     8.1390   -51.4070 H      6043  TIP5893     0.2052
 37042 OH2         27.1050    21.9470    49.6160 O.3    6044  TIP5894    -0.4105
 37043 H1          27.0350    20.9930    49.6250 H      6044  TIP5894     0.2052
 37044 H2          26.2010    22.2530    49.5330 H      6044  TIP5894     0.2052
 37045 OH2         13.3610     7.3670   -49.9790 O.3    6045  TIP5895    -0.4105
 37046 H1          13.2450     8.3170   -50.0030 H      6045  TIP5895     0.2052
 37047 H2          13.8940     7.2100   -49.2000 H      6045  TIP5895     0.2052
 37048 OH2          6.2820     7.5490   -15.1190 O.3    6046  TIP5896    -0.4105
 37049 H1           6.0780     8.4830   -15.1690 H      6046  TIP5896     0.2052
 37050 H2           6.6820     7.4360   -14.2570 H      6046  TIP5896     0.2052
 37051 OH2          5.4050   -10.9560   -31.7730 O.3    6047  TIP5897    -0.4105
 37052 H1           5.0100   -11.6480   -32.3030 H      6047  TIP5897     0.2052
 37053 H2           4.6660   -10.4110   -31.5000 H      6047  TIP5897     0.2052
 37054 OH2         30.1090    20.3600    31.0430 O.3    6048  TIP5898    -0.4105
 37055 H1          29.1680    20.4000    30.8750 H      6048  TIP5898     0.2052
 37056 H2          30.4050    21.2680    30.9680 H      6048  TIP5898     0.2052
 37057 OH2         14.7350    -4.4620   -50.3820 O.3    6049  TIP5899    -0.4105
 37058 H1          15.2050    -3.7820   -50.8650 H      6049  TIP5899     0.2052
 37059 H2          14.4570    -4.0330   -49.5730 H      6049  TIP5899     0.2052
 37060 OH2         20.3320    -9.2220   -20.7630 O.3    6050  TIP5900    -0.4105
 37061 H1          19.7810    -8.5050   -20.4510 H      6050  TIP5900     0.2052
 37062 H2          20.2920    -9.1580   -21.7170 H      6050  TIP5900     0.2052
 37063 OH2        -25.3550   -18.8970    44.9790 O.3    6051  TIP5901    -0.4105
 37064 H1         -26.2240   -19.1640    45.2770 H      6051  TIP5901     0.2052
 37065 H2         -25.2430   -19.3400    44.1380 H      6051  TIP5901     0.2052
 37066 OH2         30.7130    16.1520   -41.8540 O.3    6052  TIP5902    -0.4105
 37067 H1          31.0180    16.8140   -41.2350 H      6052  TIP5902     0.2052
 37068 H2          31.1690    16.3590   -42.6700 H      6052  TIP5902     0.2052
 37069 OH2        -23.0890    32.6640   -25.3890 O.3    6053  TIP5903    -0.4105
 37070 H1         -22.6030    33.1490   -24.7210 H      6053  TIP5903     0.2052
 37071 H2         -23.1770    33.2800   -26.1160 H      6053  TIP5903     0.2052
 37072 OH2        -27.1580    -6.3240    31.7780 O.3    6054  TIP5904    -0.4105
 37073 H1         -27.8650    -6.7890    32.2260 H      6054  TIP5904     0.2052
 37074 H2         -27.1540    -6.6880    30.8930 H      6054  TIP5904     0.2052
 37075 OH2        -16.0980   -11.7450   -30.8140 O.3    6055  TIP5905    -0.4105
 37076 H1         -16.7060   -11.3180   -30.2110 H      6055  TIP5905     0.2052
 37077 H2         -16.0780   -11.1720   -31.5810 H      6055  TIP5905     0.2052
 37078 OH2        -32.7990     8.8940   -32.5540 O.3    6056  TIP5906    -0.4105
 37079 H1         -31.9480     8.8530   -32.1170 H      6056  TIP5906     0.2052
 37080 H2         -32.5880     8.9100   -33.4870 H      6056  TIP5906     0.2052
 37081 OH2         -9.1600    30.3320    49.6160 O.3    6057  TIP5907    -0.4105
 37082 H1          -9.1260    30.5660    48.6880 H      6057  TIP5907     0.2052
 37083 H2          -8.2620    30.4460    49.9250 H      6057  TIP5907     0.2052
 37084 OH2        -10.3010    27.0450   -40.2660 O.3    6058  TIP5908    -0.4105
 37085 H1          -9.6370    26.5290   -40.7240 H      6058  TIP5908     0.2052
 37086 H2         -10.3430    26.6590   -39.3910 H      6058  TIP5908     0.2052
 37087 OH2        -10.1400    14.9160   -48.0710 O.3    6059  TIP5909    -0.4105
 37088 H1         -10.9050    14.6150   -48.5620 H      6059  TIP5909     0.2052
 37089 H2          -9.8130    15.6640   -48.5710 H      6059  TIP5909     0.2052
 37090 OH2         28.1650   -20.5650    26.6470 O.3    6060  TIP5910    -0.4105
 37091 H1          28.3380   -21.4350    27.0070 H      6060  TIP5910     0.2052
 37092 H2          28.7410   -20.5020    25.8850 H      6060  TIP5910     0.2052
 37093 OH2        -12.5600   -11.8380   -48.0650 O.3    6061  TIP5911    -0.4105
 37094 H1         -12.8300   -11.9480   -47.1530 H      6061  TIP5911     0.2052
 37095 H2         -11.7210   -12.2940   -48.1230 H      6061  TIP5911     0.2052
 37096 OH2        -28.2890    -6.9080   -37.8060 O.3    6062  TIP5912    -0.4105
 37097 H1         -27.7100    -7.6670   -37.7390 H      6062  TIP5912     0.2052
 37098 H2         -28.7750    -7.0470   -38.6190 H      6062  TIP5912     0.2052
 37099 OH2        -30.5250   -19.9420   -50.5440 O.3    6063  TIP5913    -0.4105
 37100 H1         -30.4050   -20.4090   -51.3700 H      6063  TIP5913     0.2052
 37101 H2         -29.9930   -19.1510   -50.6350 H      6063  TIP5913     0.2052
 37102 OH2         17.9780   -16.5600    42.0730 O.3    6064  TIP5914    -0.4105
 37103 H1          17.1730   -16.3250    41.6120 H      6064  TIP5914     0.2052
 37104 H2          18.1010   -15.8610    42.7140 H      6064  TIP5914     0.2052
 37105 OH2          7.6760    12.0860   -40.9810 O.3    6065  TIP5915    -0.4105
 37106 H1           7.0920    11.3280   -41.0080 H      6065  TIP5915     0.2052
 37107 H2           8.4920    11.7470   -40.6120 H      6065  TIP5915     0.2052
 37108 OH2         28.2810    32.7490   -46.1560 O.3    6066  TIP5916    -0.4105
 37109 H1          27.9090    31.9180   -45.8610 H      6066  TIP5916     0.2052
 37110 H2          29.1810    32.5350   -46.4030 H      6066  TIP5916     0.2052
 37111 OH2         24.8590   -14.7610    27.9970 O.3    6067  TIP5917    -0.4105
 37112 H1          24.1000   -15.3010    28.2190 H      6067  TIP5917     0.2052
 37113 H2          24.9070   -14.7970    27.0410 H      6067  TIP5917     0.2052
 37114 OH2         16.7080    12.7740   -38.1960 O.3    6068  TIP5918    -0.4105
 37115 H1          16.4180    11.8750   -38.3460 H      6068  TIP5918     0.2052
 37116 H2          16.0170    13.1640   -37.6600 H      6068  TIP5918     0.2052
 37117 OH2         -6.7550    32.7250   -28.1970 O.3    6069  TIP5919    -0.4105
 37118 H1          -7.6380    32.3580   -28.1490 H      6069  TIP5919     0.2052
 37119 H2          -6.5020    32.8620   -27.2840 H      6069  TIP5919     0.2052
 37120 OH2          5.3200   -23.2230   -42.2060 O.3    6070  TIP5920    -0.4105
 37121 H1           5.6170   -23.9260   -42.7850 H      6070  TIP5920     0.2052
 37122 H2           5.2050   -23.6450   -41.3550 H      6070  TIP5920     0.2052
 37123 OH2         -6.2210    -7.0530   -49.4940 O.3    6071  TIP5921    -0.4105
 37124 H1          -6.9510    -6.5100   -49.1950 H      6071  TIP5921     0.2052
 37125 H2          -6.3900    -7.1890   -50.4260 H      6071  TIP5921     0.2052
 37126 OH2        -22.9260    -9.6590   -45.2710 O.3    6072  TIP5922    -0.4105
 37127 H1         -23.4240    -9.6470   -46.0880 H      6072  TIP5922     0.2052
 37128 H2         -22.4700   -10.5010   -45.2810 H      6072  TIP5922     0.2052
 37129 OH2        -13.5380   -26.0630    47.5150 O.3    6073  TIP5923    -0.4105
 37130 H1         -13.8940   -25.7070    48.3290 H      6073  TIP5923     0.2052
 37131 H2         -12.9660   -26.7770    47.7960 H      6073  TIP5923     0.2052
 37132 OH2          4.1540   -21.8120    35.4150 O.3    6074  TIP5924    -0.4105
 37133 H1           3.7420   -21.1240    34.8920 H      6074  TIP5924     0.2052
 37134 H2           4.6500   -22.3310    34.7820 H      6074  TIP5924     0.2052
 37135 OH2         -2.5150   -17.4240   -54.6680 O.3    6075  TIP5925    -0.4105
 37136 H1          -2.7530   -18.2740   -54.2970 H      6075  TIP5925     0.2052
 37137 H2          -1.5730   -17.3510   -54.5140 H      6075  TIP5925     0.2052
 37138 OH2         -5.8050   -22.6450    29.8790 O.3    6076  TIP5926    -0.4105
 37139 H1          -5.8820   -21.7960    30.3140 H      6076  TIP5926     0.2052
 37140 H2          -5.6070   -23.2590    30.5860 H      6076  TIP5926     0.2052
 37141 OH2          8.4920    -4.7820    43.4070 O.3    6077  TIP5927    -0.4105
 37142 H1           7.8260    -5.4690    43.3960 H      6077  TIP5927     0.2052
 37143 H2           8.2310    -4.2060    44.1260 H      6077  TIP5927     0.2052
 37144 OH2          8.2830    -9.7560   -38.8060 O.3    6078  TIP5928    -0.4105
 37145 H1           8.8760    -9.0090   -38.8910 H      6078  TIP5928     0.2052
 37146 H2           8.8260   -10.4530   -38.4370 H      6078  TIP5928     0.2052
 37147 OH2          0.6570   -26.9990   -33.6580 O.3    6079  TIP5929    -0.4105
 37148 H1           0.7270   -27.5410   -34.4440 H      6079  TIP5929     0.2052
 37149 H2           0.2400   -26.1910   -33.9610 H      6079  TIP5929     0.2052
 37150 OH2         -8.3550   -13.6170   -42.4830 O.3    6080  TIP5930    -0.4105
 37151 H1          -7.8490   -13.2110   -43.1870 H      6080  TIP5930     0.2052
 37152 H2          -8.1130   -13.1240   -41.6990 H      6080  TIP5930     0.2052
 37153 OH2        -27.7000    -0.4730   -16.6870 O.3    6081  TIP5931    -0.4105
 37154 H1         -27.5700     0.1200   -15.9470 H      6081  TIP5931     0.2052
 37155 H2         -28.3350    -0.0240   -17.2460 H      6081  TIP5931     0.2052
 37156 OH2         26.1590   -11.1720    16.3470 O.3    6082  TIP5932    -0.4105
 37157 H1          25.5750   -10.5110    16.7160 H      6082  TIP5932     0.2052
 37158 H2          27.0310   -10.9180    16.6500 H      6082  TIP5932     0.2052
 37159 OH2         -7.7240   -22.3750   -44.2520 O.3    6083  TIP5933    -0.4105
 37160 H1          -7.0870   -23.0830   -44.3480 H      6083  TIP5933     0.2052
 37161 H2          -7.4680   -21.7310   -44.9130 H      6083  TIP5933     0.2052
 37162 OH2         -5.9830    -4.5390   -30.7410 O.3    6084  TIP5934    -0.4105
 37163 H1          -5.8590    -4.6330   -29.7960 H      6084  TIP5934     0.2052
 37164 H2          -5.4530    -3.7770   -30.9770 H      6084  TIP5934     0.2052
 37165 OH2        -28.7570    10.6950   -42.7080 O.3    6085  TIP5935    -0.4105
 37166 H1         -29.5430    10.1650   -42.5770 H      6085  TIP5935     0.2052
 37167 H2         -29.0870    11.5780   -42.8750 H      6085  TIP5935     0.2052
 37168 OH2         22.2650    27.4450    41.8970 O.3    6086  TIP5936    -0.4105
 37169 H1          22.7250    26.7490    42.3660 H      6086  TIP5936     0.2052
 37170 H2          22.8530    28.1980    41.9460 H      6086  TIP5936     0.2052
 37171 OH2         27.1460   -11.0510    45.0640 O.3    6087  TIP5937    -0.4105
 37172 H1          26.5420   -10.6050    44.4700 H      6087  TIP5937     0.2052
 37173 H2          27.3650   -11.8670    44.6150 H      6087  TIP5937     0.2052
 37174 OH2         -2.3320   -14.4670   -15.5740 O.3    6088  TIP5938    -0.4105
 37175 H1          -1.5070   -14.4070   -15.0920 H      6088  TIP5938     0.2052
 37176 H2          -2.4340   -13.6080   -15.9830 H      6088  TIP5938     0.2052
 37177 OH2        -21.3380    -6.6760   -45.6800 O.3    6089  TIP5939    -0.4105
 37178 H1         -21.0460    -6.8120   -46.5810 H      6089  TIP5939     0.2052
 37179 H2         -22.2810    -6.5330   -45.7520 H      6089  TIP5939     0.2052
 37180 OH2          8.2550    -7.4420    48.9200 O.3    6090  TIP5940    -0.4105
 37181 H1           8.7990    -7.5980    48.1480 H      6090  TIP5940     0.2052
 37182 H2           7.3590    -7.4280    48.5820 H      6090  TIP5940     0.2052
 37183 OH2        -30.5880    14.6980   -47.7290 O.3    6091  TIP5941    -0.4105
 37184 H1         -30.4600    14.5300   -48.6630 H      6091  TIP5941     0.2052
 37185 H2         -29.7020    14.7230   -47.3660 H      6091  TIP5941     0.2052
 37186 OH2          2.2810    12.6770    20.4090 O.3    6092  TIP5942    -0.4105
 37187 H1           1.8170    13.4930    20.5990 H      6092  TIP5942     0.2052
 37188 H2           1.9360    12.0510    21.0450 H      6092  TIP5942     0.2052
 37189 OH2         31.8280    17.6890    54.7070 O.3    6093  TIP5943    -0.4105
 37190 H1          31.9720    16.9480    54.1180 H      6093  TIP5943     0.2052
 37191 H2          32.6580    18.1650    54.7020 H      6093  TIP5943     0.2052
 37192 OH2         13.0130   -19.6360   -47.3460 O.3    6094  TIP5944    -0.4105
 37193 H1          12.9920   -20.5870   -47.4560 H      6094  TIP5944     0.2052
 37194 H2          12.2810   -19.3170   -47.8740 H      6094  TIP5944     0.2052
 37195 OH2        -14.2430    18.9060   -51.8360 O.3    6095  TIP5945    -0.4105
 37196 H1         -14.4220    18.0100   -52.1210 H      6095  TIP5945     0.2052
 37197 H2         -13.6080    19.2390   -52.4710 H      6095  TIP5945     0.2052
 37198 OH2          1.1160    -6.8070   -49.3970 O.3    6096  TIP5946    -0.4105
 37199 H1           0.4960    -6.0880   -49.2780 H      6096  TIP5946     0.2052
 37200 H2           0.8540    -7.2160   -50.2210 H      6096  TIP5946     0.2052
 37201 OH2         14.5700     6.7900   -35.0540 O.3    6097  TIP5947    -0.4105
 37202 H1          13.7630     6.3490   -34.7880 H      6097  TIP5947     0.2052
 37203 H2          14.5080     7.6610   -34.6620 H      6097  TIP5947     0.2052
 37204 OH2          3.5250     4.6190    21.8780 O.3    6098  TIP5948    -0.4105
 37205 H1           3.2890     5.3620    21.3220 H      6098  TIP5948     0.2052
 37206 H2           4.4650     4.7210    22.0270 H      6098  TIP5948     0.2052
 37207 OH2        -10.6060     5.8790   -28.0930 O.3    6099  TIP5949    -0.4105
 37208 H1          -9.7790     5.4580   -28.3270 H      6099  TIP5949     0.2052
 37209 H2         -10.3490     6.7250   -27.7250 H      6099  TIP5949     0.2052
 37210 OH2        -17.8110    18.1740   -25.8690 O.3    6100  TIP5950    -0.4105
 37211 H1         -17.3190    18.9830   -26.0080 H      6100  TIP5950     0.2052
 37212 H2         -17.1620    17.5500   -25.5430 H      6100  TIP5950     0.2052
 37213 OH2         31.7130    24.6310   -22.1390 O.3    6101  TIP5951    -0.4105
 37214 H1          32.1350    24.5580   -21.2830 H      6101  TIP5951     0.2052
 37215 H2          31.4500    25.5490   -22.1990 H      6101  TIP5951     0.2052
 37216 OH2        -31.2130    16.5630    20.5570 O.3    6102  TIP5952    -0.4105
 37217 H1         -30.8800    17.3780    20.1820 H      6102  TIP5952     0.2052
 37218 H2         -30.6610    15.8800    20.1760 H      6102  TIP5952     0.2052
 37219 OH2         11.9370    -5.6500    28.0820 O.3    6103  TIP5953    -0.4105
 37220 H1          12.4460    -4.9950    28.5600 H      6103  TIP5953     0.2052
 37221 H2          11.0240    -5.4130    28.2480 H      6103  TIP5953     0.2052
 37222 OH2         26.9950     5.6460    42.1710 O.3    6104  TIP5954    -0.4105
 37223 H1          26.5680     4.8070    41.9960 H      6104  TIP5954     0.2052
 37224 H2          26.7780     6.1890    41.4130 H      6104  TIP5954     0.2052
 37225 OH2         19.3240    23.7480   -24.5440 O.3    6105  TIP5955    -0.4105
 37226 H1          19.0720    23.2500   -25.3210 H      6105  TIP5955     0.2052
 37227 H2          18.9690    23.2460   -23.8110 H      6105  TIP5955     0.2052
 37228 OH2         29.6130    11.3250    32.0070 O.3    6106  TIP5956    -0.4105
 37229 H1          29.8930    11.7630    32.8110 H      6106  TIP5956     0.2052
 37230 H2          29.0890    10.5820    32.3080 H      6106  TIP5956     0.2052
 37231 OH2         30.2240    25.9520    37.5400 O.3    6107  TIP5957    -0.4105
 37232 H1          29.2760    25.8700    37.6500 H      6107  TIP5957     0.2052
 37233 H2          30.5680    25.9730    38.4330 H      6107  TIP5957     0.2052
 37234 OH2         18.9490   -24.2350   -51.6110 O.3    6108  TIP5958    -0.4105
 37235 H1          18.0630   -23.9920   -51.3400 H      6108  TIP5958     0.2052
 37236 H2          19.2050   -23.5530   -52.2310 H      6108  TIP5958     0.2052
 37237 OH2          4.8900   -21.6770   -33.0740 O.3    6109  TIP5959    -0.4105
 37238 H1           4.6140   -21.6520   -33.9900 H      6109  TIP5959     0.2052
 37239 H2           4.2830   -22.2880   -32.6570 H      6109  TIP5959     0.2052
 37240 OH2          9.3650     0.1540   -51.0700 O.3    6110  TIP5960    -0.4105
 37241 H1           9.7340    -0.5440   -51.6110 H      6110  TIP5960     0.2052
 37242 H2           9.9890     0.8750   -51.1500 H      6110  TIP5960     0.2052
 37243 OH2        -31.6510    -1.1280    48.8930 O.3    6111  TIP5961    -0.4105
 37244 H1         -31.3270    -0.3710    48.4050 H      6111  TIP5961     0.2052
 37245 H2         -31.7100    -0.8220    49.7980 H      6111  TIP5961     0.2052
 37246 OH2         -9.5480    -1.3710   -36.4850 O.3    6112  TIP5962    -0.4105
 37247 H1         -10.2090    -1.9640   -36.1270 H      6112  TIP5962     0.2052
 37248 H2          -9.1760    -1.8470   -37.2270 H      6112  TIP5962     0.2052
 37249 OH2         15.8750    32.4600   -46.4140 O.3    6113  TIP5963    -0.4105
 37250 H1          14.9260    32.3780   -46.3180 H      6113  TIP5963     0.2052
 37251 H2          16.0340    32.3280   -47.3490 H      6113  TIP5963     0.2052
 37252 OH2        -26.2100    20.7190   -50.0120 O.3    6114  TIP5964    -0.4105
 37253 H1         -26.6460    21.5230   -49.7300 H      6114  TIP5964     0.2052
 37254 H2         -26.6280    20.0270   -49.5000 H      6114  TIP5964     0.2052
 37255 OH2        -17.7690    21.6330   -28.4640 O.3    6115  TIP5965    -0.4105
 37256 H1         -17.1980    22.0760   -29.0910 H      6115  TIP5965     0.2052
 37257 H2         -17.6470    20.7010   -28.6450 H      6115  TIP5965     0.2052
 37258 OH2        -16.1000   -22.9950   -18.9770 O.3    6116  TIP5966    -0.4105
 37259 H1         -16.6330   -23.7840   -19.0840 H      6116  TIP5966     0.2052
 37260 H2         -15.2240   -23.3240   -18.7740 H      6116  TIP5966     0.2052
 37261 OH2          9.6060   -32.0530   -35.6850 O.3    6117  TIP5967    -0.4105
 37262 H1           9.7570   -32.9040   -36.0950 H      6117  TIP5967     0.2052
 37263 H2          10.0900   -31.4340   -36.2310 H      6117  TIP5967     0.2052
 37264 OH2        -24.4040   -23.7460   -30.7180 O.3    6118  TIP5968    -0.4105
 37265 H1         -23.7870   -24.1760   -31.3110 H      6118  TIP5968     0.2052
 37266 H2         -24.6070   -24.4100   -30.0600 H      6118  TIP5968     0.2052
 37267 OH2        -17.6770    31.6110   -41.9250 O.3    6119  TIP5969    -0.4105
 37268 H1         -17.5430    32.4370   -41.4610 H      6119  TIP5969     0.2052
 37269 H2         -18.1010    31.8620   -42.7450 H      6119  TIP5969     0.2052
 37270 OH2          5.8770   -25.2970   -21.6460 O.3    6120  TIP5970    -0.4105
 37271 H1           5.1780   -24.9740   -21.0780 H      6120  TIP5970     0.2052
 37272 H2           5.4510   -25.4440   -22.4910 H      6120  TIP5970     0.2052
 37273 OH2         -4.8400   -28.2060    35.0140 O.3    6121  TIP5971    -0.4105
 37274 H1          -5.1030   -29.1260    34.9800 H      6121  TIP5971     0.2052
 37275 H2          -4.2690   -28.0910    34.2540 H      6121  TIP5971     0.2052
 37276 OH2        -14.3000    14.1210    49.6360 O.3    6122  TIP5972    -0.4105
 37277 H1         -14.0560    14.1970    48.7140 H      6122  TIP5972     0.2052
 37278 H2         -15.1710    14.5150    49.6880 H      6122  TIP5972     0.2052
 37279 OH2         31.2570    -2.5050    19.8840 O.3    6123  TIP5973    -0.4105
 37280 H1          31.3640    -2.4150    20.8310 H      6123  TIP5973     0.2052
 37281 H2          30.6990    -1.7680    19.6350 H      6123  TIP5973     0.2052
 37282 OH2        -27.5650     2.6940    44.4390 O.3    6124  TIP5974    -0.4105
 37283 H1         -27.7830     2.6810    43.5070 H      6124  TIP5974     0.2052
 37284 H2         -26.7240     3.1490    44.4820 H      6124  TIP5974     0.2052
 37285 OH2         16.3520   -17.1390   -39.7380 O.3    6125  TIP5975    -0.4105
 37286 H1          15.9490   -16.7930   -40.5340 H      6125  TIP5975     0.2052
 37287 H2          17.0580   -17.7030   -40.0520 H      6125  TIP5975     0.2052
 37288 OH2        -16.0470   -16.6160   -45.0020 O.3    6126  TIP5976    -0.4105
 37289 H1         -15.1660   -16.9010   -45.2420 H      6126  TIP5976     0.2052
 37290 H2         -16.5090   -17.4250   -44.7810 H      6126  TIP5976     0.2052
 37291 OH2         31.3900     8.0660    30.5930 O.3    6127  TIP5977    -0.4105
 37292 H1          32.0710     8.5010    31.1070 H      6127  TIP5977     0.2052
 37293 H2          31.5100     8.3990    29.7040 H      6127  TIP5977     0.2052
 37294 OH2          8.9540   -14.5220   -27.9570 O.3    6128  TIP5978    -0.4105
 37295 H1           8.3530   -13.9340   -28.4160 H      6128  TIP5978     0.2052
 37296 H2           9.7600   -14.4900   -28.4720 H      6128  TIP5978     0.2052
 37297 OH2          8.1240    20.2320   -24.0760 O.3    6129  TIP5979    -0.4105
 37298 H1           7.9580    20.7690   -23.3010 H      6129  TIP5979     0.2052
 37299 H2           7.7630    19.3740   -23.8550 H      6129  TIP5979     0.2052
 37300 OH2          7.2420    18.4950    44.5020 O.3    6130  TIP5980    -0.4105
 37301 H1           8.1190    18.8570    44.3790 H      6130  TIP5980     0.2052
 37302 H2           6.9340    18.8810    45.3220 H      6130  TIP5980     0.2052
 37303 OH2          2.9890    30.4710   -30.2910 O.3    6131  TIP5981    -0.4105
 37304 H1           3.5190    30.7390   -31.0410 H      6131  TIP5981     0.2052
 37305 H2           2.2340    30.0270   -30.6770 H      6131  TIP5981     0.2052
 37306 OH2        -15.3220   -30.7960   -36.5640 O.3    6132  TIP5982    -0.4105
 37307 H1         -14.8280   -31.5260   -36.9370 H      6132  TIP5982     0.2052
 37308 H2         -15.3300   -30.9690   -35.6220 H      6132  TIP5982     0.2052
 37309 OH2         31.4670   -21.9520    52.2670 O.3    6133  TIP5983    -0.4105
 37310 H1          31.6630   -21.0250    52.4040 H      6133  TIP5983     0.2052
 37311 H2          30.8060   -21.9580    51.5750 H      6133  TIP5983     0.2052
 37312 OH2          7.1680    23.3990    29.9960 O.3    6134  TIP5984    -0.4105
 37313 H1           7.6460    22.6760    29.5900 H      6134  TIP5984     0.2052
 37314 H2           7.0130    23.1080    30.8950 H      6134  TIP5984     0.2052
 37315 OH2         -0.5970     8.0170   -36.4160 O.3    6135  TIP5985    -0.4105
 37316 H1          -0.1590     8.3560   -35.6350 H      6135  TIP5985     0.2052
 37317 H2          -1.4040     8.5290   -36.4790 H      6135  TIP5985     0.2052
 37318 OH2        -11.1870    17.0030    43.2830 O.3    6136  TIP5986    -0.4105
 37319 H1         -11.5320    17.7200    43.8150 H      6136  TIP5986     0.2052
 37320 H2         -11.9540    16.4700    43.0730 H      6136  TIP5986     0.2052
 37321 OH2        -11.7330    -7.3660    54.4420 O.3    6137  TIP5987    -0.4105
 37322 H1         -12.3350    -8.0520    54.1510 H      6137  TIP5987     0.2052
 37323 H2         -11.0940    -7.2910    53.7330 H      6137  TIP5987     0.2052
 37324 OH2         -4.1470    16.7780   -33.1460 O.3    6138  TIP5988    -0.4105
 37325 H1          -4.7550    16.2490   -33.6620 H      6138  TIP5988     0.2052
 37326 H2          -3.4970    17.0830   -33.7800 H      6138  TIP5988     0.2052
 37327 OH2          0.5560    -0.0420    22.4330 O.3    6139  TIP5989    -0.4105
 37328 H1           0.1490    -0.3920    23.2250 H      6139  TIP5989     0.2052
 37329 H2           1.0260     0.7380    22.7290 H      6139  TIP5989     0.2052
 37330 OH2        -17.7710    26.1800   -43.5190 O.3    6140  TIP5990    -0.4105
 37331 H1         -17.3640    25.4530   -43.9910 H      6140  TIP5990     0.2052
 37332 H2         -17.3290    26.1930   -42.6700 H      6140  TIP5990     0.2052
 37333 OH2         -8.8660     0.8220    36.4540 O.3    6141  TIP5991    -0.4105
 37334 H1          -8.2880     0.1270    36.1380 H      6141  TIP5991     0.2052
 37335 H2          -9.7470     0.5240    36.2280 H      6141  TIP5991     0.2052
 37336 OH2         16.0870    -4.6610    42.2910 O.3    6142  TIP5992    -0.4105
 37337 H1          15.1780    -4.8260    42.0400 H      6142  TIP5992     0.2052
 37338 H2          16.5850    -4.7840    41.4830 H      6142  TIP5992     0.2052
 37339 OH2         24.9400    27.4200    46.1790 O.3    6143  TIP5993    -0.4105
 37340 H1          24.8000    26.4740    46.1330 H      6143  TIP5993     0.2052
 37341 H2          24.0600    27.7950    46.1290 H      6143  TIP5993     0.2052
 37342 OH2         32.5230   -10.9000   -34.2050 O.3    6144  TIP5994    -0.4105
 37343 H1          31.9320   -10.1490   -34.2720 H      6144  TIP5994     0.2052
 37344 H2          32.4780   -11.1600   -33.2850 H      6144  TIP5994     0.2052
 37345 OH2         30.8680    29.6380    31.4050 O.3    6145  TIP5995    -0.4105
 37346 H1          30.1710    30.0530    31.9130 H      6145  TIP5995     0.2052
 37347 H2          31.2620    30.3550    30.9090 H      6145  TIP5995     0.2052
 37348 OH2         29.1100   -12.7550   -38.4060 O.3    6146  TIP5996    -0.4105
 37349 H1          29.5220   -12.2250   -39.0880 H      6146  TIP5996     0.2052
 37350 H2          29.6890   -13.5100   -38.3060 H      6146  TIP5996     0.2052
 37351 OH2        -12.2270    20.0520   -53.2560 O.3    6147  TIP5997    -0.4105
 37352 H1         -12.0610    20.8330   -52.7280 H      6147  TIP5997     0.2052
 37353 H2         -11.7550    19.3530   -52.8040 H      6147  TIP5997     0.2052
 37354 OH2          9.3820    20.4590   -45.1150 O.3    6148  TIP5998    -0.4105
 37355 H1           8.6130    20.0000   -45.4550 H      6148  TIP5998     0.2052
 37356 H2           9.8960    20.6750   -45.8930 H      6148  TIP5998     0.2052
 37357 OH2        -11.3920     7.5190   -22.6240 O.3    6149  TIP5999    -0.4105
 37358 H1         -10.9260     6.9090   -22.0530 H      6149  TIP5999     0.2052
 37359 H2         -11.4790     8.3170   -22.1020 H      6149  TIP5999     0.2052
 37360 OH2        -27.3270    -5.1950   -29.4510 O.3    6150  TIP6000    -0.4105
 37361 H1         -27.4120    -4.3420   -29.0240 H      6150  TIP6000     0.2052
 37362 H2         -27.4960    -5.8290   -28.7540 H      6150  TIP6000     0.2052
 37363 OH2        -10.7540    20.5270    27.2570 O.3    6151  TIP6001    -0.4105
 37364 H1         -10.3690    21.3290    26.9050 H      6151  TIP6001     0.2052
 37365 H2         -11.2380    20.8130    28.0320 H      6151  TIP6001     0.2052
 37366 OH2        -28.4700    31.8640    46.4110 O.3    6152  TIP6002    -0.4105
 37367 H1         -28.0140    31.3270    45.7640 H      6152  TIP6002     0.2052
 37368 H2         -27.8470    32.5590    46.6270 H      6152  TIP6002     0.2052
 37369 OH2        -21.9820    16.2060    24.0130 O.3    6153  TIP6003    -0.4105
 37370 H1         -22.2440    16.8840    24.6370 H      6153  TIP6003     0.2052
 37371 H2         -21.2440    15.7650    24.4340 H      6153  TIP6003     0.2052
 37372 OH2         -4.7590    19.9480    52.9360 O.3    6154  TIP6004    -0.4105
 37373 H1          -5.5460    19.7300    52.4370 H      6154  TIP6004     0.2052
 37374 H2          -4.9820    19.7330    53.8420 H      6154  TIP6004     0.2052
 37375 OH2         -3.7910   -12.9880   -23.4160 O.3    6155  TIP6005    -0.4105
 37376 H1          -3.3290   -12.4570   -24.0650 H      6155  TIP6005     0.2052
 37377 H2          -4.7090   -12.7330   -23.5080 H      6155  TIP6005     0.2052
 37378 OH2         13.1900   -32.7940    53.8010 O.3    6156  TIP6006    -0.4105
 37379 H1          12.4130   -33.3260    53.6320 H      6156  TIP6006     0.2052
 37380 H2          13.3930   -32.3900    52.9570 H      6156  TIP6006     0.2052
 37381 OH2        -15.9390     0.0950    36.1340 O.3    6157  TIP6007    -0.4105
 37382 H1         -15.7350     0.6470    36.8890 H      6157  TIP6007     0.2052
 37383 H2         -16.8780    -0.0780    36.2100 H      6157  TIP6007     0.2052
 37384 OH2        -26.6300    10.5740   -26.9300 O.3    6158  TIP6008    -0.4105
 37385 H1         -26.9150    11.2440   -27.5520 H      6158  TIP6008     0.2052
 37386 H2         -26.2130     9.9050   -27.4730 H      6158  TIP6008     0.2052
 37387 OH2        -26.2840    -8.7610   -37.8390 O.3    6159  TIP6009    -0.4105
 37388 H1         -26.4700    -9.4900   -37.2470 H      6159  TIP6009     0.2052
 37389 H2         -25.4280    -8.4370   -37.5600 H      6159  TIP6009     0.2052
 37390 OH2          9.9190   -15.4990    53.7670 O.3    6160  TIP6010    -0.4105
 37391 H1           9.0120   -15.4340    54.0660 H      6160  TIP6010     0.2052
 37392 H2           9.8750   -15.3220    52.8270 H      6160  TIP6010     0.2052
 37393 OH2         -1.3090     2.5700    35.7500 O.3    6161  TIP6011    -0.4105
 37394 H1          -1.5110     2.2650    36.6350 H      6161  TIP6011     0.2052
 37395 H2          -0.4450     2.2030    35.5620 H      6161  TIP6011     0.2052
 37396 OH2          0.4730     7.3630    45.3610 O.3    6162  TIP6012    -0.4105
 37397 H1           0.1950     6.8260    44.6190 H      6162  TIP6012     0.2052
 37398 H2           0.6050     6.7380    46.0740 H      6162  TIP6012     0.2052
 37399 OH2         10.7200    26.8250    35.4330 O.3    6163  TIP6013    -0.4105
 37400 H1          11.2430    26.6390    34.6530 H      6163  TIP6013     0.2052
 37401 H2          11.3220    26.6860    36.1640 H      6163  TIP6013     0.2052
 37402 OH2        -32.7150   -23.4580    26.6400 O.3    6164  TIP6014    -0.4105
 37403 H1         -33.4510   -22.8500    26.5690 H      6164  TIP6014     0.2052
 37404 H2         -32.9740   -24.2110    26.1090 H      6164  TIP6014     0.2052
 37405 OH2          6.3140    -4.5440   -48.0910 O.3    6165  TIP6015    -0.4105
 37406 H1           6.2490    -4.7490   -49.0240 H      6165  TIP6015     0.2052
 37407 H2           7.1080    -4.0140   -48.0170 H      6165  TIP6015     0.2052
 37408 OH2         21.4870    -1.9910   -43.9390 O.3    6166  TIP6016    -0.4105
 37409 H1          20.8640    -2.7150   -43.8750 H      6166  TIP6016     0.2052
 37410 H2          22.3290    -2.4120   -44.1120 H      6166  TIP6016     0.2052
 37411 OH2          2.1110     7.8520   -22.2430 O.3    6167  TIP6017    -0.4105
 37412 H1           1.5830     7.4240   -21.5690 H      6167  TIP6017     0.2052
 37413 H2           1.7340     7.5520   -23.0700 H      6167  TIP6017     0.2052
 37414 OH2          7.1950    25.7500    31.2690 O.3    6168  TIP6018    -0.4105
 37415 H1           7.2960    24.8400    30.9890 H      6168  TIP6018     0.2052
 37416 H2           6.5170    26.1040    30.6950 H      6168  TIP6018     0.2052
 37417 OH2         22.0340    20.1730   -26.3800 O.3    6169  TIP6019    -0.4105
 37418 H1          22.2330    20.3620   -27.2970 H      6169  TIP6019     0.2052
 37419 H2          21.0840    20.2750   -26.3150 H      6169  TIP6019     0.2052
 37420 OH2        -22.6950   -30.2370    54.4590 O.3    6170  TIP6020    -0.4105
 37421 H1         -21.8700   -29.7570    54.5350 H      6170  TIP6020     0.2052
 37422 H2         -23.3410   -29.6700    54.8810 H      6170  TIP6020     0.2052
 37423 OH2          4.1240    20.3080   -28.9560 O.3    6171  TIP6021    -0.4105
 37424 H1           3.2370    20.2160   -28.6070 H      6171  TIP6021     0.2052
 37425 H2           4.1970    21.2350   -29.1820 H      6171  TIP6021     0.2052
 37426 OH2         10.7390   -27.8790    16.7210 O.3    6172  TIP6022    -0.4105
 37427 H1          10.3080   -27.0280    16.6470 H      6172  TIP6022     0.2052
 37428 H2          11.6220   -27.7320    16.3830 H      6172  TIP6022     0.2052
 37429 OH2        -22.8370   -28.5830   -32.0080 O.3    6173  TIP6023    -0.4105
 37430 H1         -22.0190   -28.2170   -31.6720 H      6173  TIP6023     0.2052
 37431 H2         -22.9140   -29.4340   -31.5770 H      6173  TIP6023     0.2052
 37432 OH2        -14.2090   -22.4710   -51.7690 O.3    6174  TIP6024    -0.4105
 37433 H1         -14.0390   -21.6240   -52.1810 H      6174  TIP6024     0.2052
 37434 H2         -13.3820   -22.7030   -51.3470 H      6174  TIP6024     0.2052
 37435 OH2          4.5750    -7.2570    39.3000 O.3    6175  TIP6025    -0.4105
 37436 H1           3.6270    -7.1670    39.2040 H      6175  TIP6025     0.2052
 37437 H2           4.6850    -7.9160    39.9850 H      6175  TIP6025     0.2052
 37438 OH2         22.8670   -25.3270    39.6710 O.3    6176  TIP6026    -0.4105
 37439 H1          23.6300   -25.8890    39.8080 H      6176  TIP6026     0.2052
 37440 H2          23.1020   -24.7850    38.9170 H      6176  TIP6026     0.2052
 37441 OH2         -9.8140   -19.8660    29.2360 O.3    6177  TIP6027    -0.4105
 37442 H1         -10.6190   -19.4070    28.9990 H      6177  TIP6027     0.2052
 37443 H2          -9.6070   -20.4000    28.4690 H      6177  TIP6027     0.2052
 37444 OH2         15.4610    -0.2190    46.6420 O.3    6178  TIP6028    -0.4105
 37445 H1          15.0320     0.6100    46.8520 H      6178  TIP6028     0.2052
 37446 H2          15.2780    -0.7820    47.3940 H      6178  TIP6028     0.2052
 37447 OH2         13.8270    -8.8430    36.8920 O.3    6179  TIP6029    -0.4105
 37448 H1          13.8800    -9.4510    36.1540 H      6179  TIP6029     0.2052
 37449 H2          14.1770    -9.3360    37.6340 H      6179  TIP6029     0.2052
 37450 OH2        -28.1610     2.0970   -46.4540 O.3    6180  TIP6030    -0.4105
 37451 H1         -27.3090     1.7100   -46.6570 H      6180  TIP6030     0.2052
 37452 H2         -28.7750     1.6420   -47.0310 H      6180  TIP6030     0.2052
 37453 OH2         31.9920    -5.8700   -52.1670 O.3    6181  TIP6031    -0.4105
 37454 H1          31.3110    -5.2550   -51.8920 H      6181  TIP6031     0.2052
 37455 H2          32.6990    -5.7430   -51.5340 H      6181  TIP6031     0.2052
 37456 OH2        -18.8610   -31.0980   -52.5900 O.3    6182  TIP6032    -0.4105
 37457 H1         -17.9960   -31.1530   -52.9950 H      6182  TIP6032     0.2052
 37458 H2         -19.3870   -31.7470   -53.0580 H      6182  TIP6032     0.2052
 37459 OH2         -1.3110   -30.1240   -31.1870 O.3    6183  TIP6033    -0.4105
 37460 H1          -1.1930   -29.6100   -30.3880 H      6183  TIP6033     0.2052
 37461 H2          -1.7600   -29.5310   -31.7900 H      6183  TIP6033     0.2052
 37462 OH2          7.0180   -15.5190   -37.7520 O.3    6184  TIP6034    -0.4105
 37463 H1           6.1350   -15.5630   -38.1180 H      6184  TIP6034     0.2052
 37464 H2           6.9390   -15.9210   -36.8870 H      6184  TIP6034     0.2052
 37465 OH2         28.4930   -21.5460   -40.6570 O.3    6185  TIP6035    -0.4105
 37466 H1          28.3840   -21.8370   -41.5630 H      6185  TIP6035     0.2052
 37467 H2          27.7630   -21.9490   -40.1870 H      6185  TIP6035     0.2052
 37468 OH2         24.4350   -26.4010   -31.1570 O.3    6186  TIP6036    -0.4105
 37469 H1          23.6510   -25.9420   -31.4580 H      6186  TIP6036     0.2052
 37470 H2          25.1070   -26.1790   -31.8020 H      6186  TIP6036     0.2052
 37471 OH2        -15.0700    27.1030   -26.2910 O.3    6187  TIP6037    -0.4105
 37472 H1         -15.6630    27.4150   -25.6070 H      6187  TIP6037     0.2052
 37473 H2         -15.0950    27.7880   -26.9600 H      6187  TIP6037     0.2052
 37474 OH2        -29.4980    21.3580    42.8620 O.3    6188  TIP6038    -0.4105
 37475 H1         -29.7450    20.4330    42.8810 H      6188  TIP6038     0.2052
 37476 H2         -30.2400    21.8130    43.2600 H      6188  TIP6038     0.2052
 37477 OH2        -10.1500    12.5530    22.1220 O.3    6189  TIP6039    -0.4105
 37478 H1         -11.0700    12.3600    21.9430 H      6189  TIP6039     0.2052
 37479 H2          -9.8370    12.9900    21.3310 H      6189  TIP6039     0.2052
 37480 OH2        -31.5750   -30.6530   -49.8580 O.3    6190  TIP6040    -0.4105
 37481 H1         -30.9780   -31.3790   -50.0370 H      6190  TIP6040     0.2052
 37482 H2         -31.5370   -30.5390   -48.9080 H      6190  TIP6040     0.2052
 37483 OH2         18.6910    27.7400    54.0640 O.3    6191  TIP6041    -0.4105
 37484 H1          17.8030    28.0980    54.0720 H      6191  TIP6041     0.2052
 37485 H2          18.5990    26.8600    54.4270 H      6191  TIP6041     0.2052
 37486 OH2        -29.2990   -11.4410    21.6350 O.3    6192  TIP6042    -0.4105
 37487 H1         -29.8900   -11.4400    22.3880 H      6192  TIP6042     0.2052
 37488 H2         -29.1490   -10.5150    21.4460 H      6192  TIP6042     0.2052
 37489 OH2         16.8040    18.2560    40.6940 O.3    6193  TIP6043    -0.4105
 37490 H1          17.0710    19.1730    40.7580 H      6193  TIP6043     0.2052
 37491 H2          17.2140    17.9420    39.8880 H      6193  TIP6043     0.2052
 37492 OH2         16.7400    13.5660    42.6540 O.3    6194  TIP6044    -0.4105
 37493 H1          16.0400    12.9610    42.4080 H      6194  TIP6044     0.2052
 37494 H2          16.3700    14.0820    43.3700 H      6194  TIP6044     0.2052
 37495 OH2        -32.3020    -4.8860   -50.0210 O.3    6195  TIP6045    -0.4105
 37496 H1         -32.0610    -5.0920   -49.1170 H      6195  TIP6045     0.2052
 37497 H2         -31.5990    -4.3150   -50.3310 H      6195  TIP6045     0.2052
 37498 OH2         17.0050     0.9110    32.2550 O.3    6196  TIP6046    -0.4105
 37499 H1          16.0570     0.8850    32.3850 H      6196  TIP6046     0.2052
 37500 H2          17.1410     1.6140    31.6190 H      6196  TIP6046     0.2052
 37501 OH2         30.5900    21.9850    43.2150 O.3    6197  TIP6047    -0.4105
 37502 H1          30.3610    21.8680    44.1370 H      6197  TIP6047     0.2052
 37503 H2          29.7920    21.7550    42.7380 H      6197  TIP6047     0.2052
 37504 OH2        -15.4680    22.8800   -47.7220 O.3    6198  TIP6048    -0.4105
 37505 H1         -14.7200    23.3070   -48.1380 H      6198  TIP6048     0.2052
 37506 H2         -15.0790    22.2250   -47.1420 H      6198  TIP6048     0.2052
 37507 OH2        -27.2840     4.8650   -30.7180 O.3    6199  TIP6049    -0.4105
 37508 H1         -27.3850     4.0000   -31.1160 H      6199  TIP6049     0.2052
 37509 H2         -27.9920     5.3870   -31.0960 H      6199  TIP6049     0.2052
 37510 OH2          8.9970   -18.1390    51.3840 O.3    6200  TIP6050    -0.4105
 37511 H1           9.5850   -17.3930    51.5060 H      6200  TIP6050     0.2052
 37512 H2           8.1570   -17.7460    51.1480 H      6200  TIP6050     0.2052
 37513 OH2        -25.7980   -31.0830    31.1460 O.3    6201  TIP6051    -0.4105
 37514 H1         -25.1530   -30.4150    30.9150 H      6201  TIP6051     0.2052
 37515 H2         -25.9410   -31.5700    30.3340 H      6201  TIP6051     0.2052
 37516 OH2         26.4280    27.0450    31.3170 O.3    6202  TIP6052    -0.4105
 37517 H1          27.1250    26.4590    31.0220 H      6202  TIP6052     0.2052
 37518 H2          25.6930    26.4640    31.5110 H      6202  TIP6052     0.2052
 37519 OH2         -3.7770    -6.2370   -29.0820 O.3    6203  TIP6053    -0.4105
 37520 H1          -3.4570    -5.9250   -28.2350 H      6203  TIP6053     0.2052
 37521 H2          -4.5330    -6.7830   -28.8660 H      6203  TIP6053     0.2052
 37522 OH2         -4.4500    14.3220   -50.3610 O.3    6204  TIP6054    -0.4105
 37523 H1          -3.9150    14.3330   -51.1540 H      6204  TIP6054     0.2052
 37524 H2          -4.6280    13.3940   -50.2050 H      6204  TIP6054     0.2052
 37525 OH2         11.0250    22.4100   -52.3770 O.3    6205  TIP6055    -0.4105
 37526 H1          11.4200    22.7760   -53.1680 H      6205  TIP6055     0.2052
 37527 H2          10.0860    22.5560   -52.4890 H      6205  TIP6055     0.2052
 37528 OH2          2.4130    22.0500   -25.0490 O.3    6206  TIP6056    -0.4105
 37529 H1           1.7130    21.4450   -24.8040 H      6206  TIP6056     0.2052
 37530 H2           3.0340    22.0040   -24.3220 H      6206  TIP6056     0.2052
 37531 OH2          2.4150   -11.4780    41.6580 O.3    6207  TIP6057    -0.4105
 37532 H1           2.9210   -11.0510    40.9670 H      6207  TIP6057     0.2052
 37533 H2           2.9680   -12.2040    41.9480 H      6207  TIP6057     0.2052
 37534 OH2        -29.0360    19.8730   -51.6310 O.3    6208  TIP6058    -0.4105
 37535 H1         -28.8770    20.7390   -51.2560 H      6208  TIP6058     0.2052
 37536 H2         -28.7480    19.2620   -50.9530 H      6208  TIP6058     0.2052
 37537 OH2        -26.9190   -16.3670    39.7020 O.3    6209  TIP6059    -0.4105
 37538 H1         -26.6620   -15.7280    40.3660 H      6209  TIP6059     0.2052
 37539 H2         -26.2620   -17.0600    39.7680 H      6209  TIP6059     0.2052
 37540 OH2         14.0280   -17.2700    30.5790 O.3    6210  TIP6060    -0.4105
 37541 H1          13.1150   -16.9960    30.4980 H      6210  TIP6060     0.2052
 37542 H2          14.0220   -17.9200    31.2820 H      6210  TIP6060     0.2052
 37543 OH2        -23.3250    22.3400    43.7450 O.3    6211  TIP6061    -0.4105
 37544 H1         -22.4670    22.7560    43.6540 H      6211  TIP6061     0.2052
 37545 H2         -23.9520    23.0530    43.6190 H      6211  TIP6061     0.2052
 37546 OH2         -4.6250     5.4970   -35.6020 O.3    6212  TIP6062    -0.4105
 37547 H1          -4.5550     4.7040   -35.0700 H      6212  TIP6062     0.2052
 37548 H2          -3.8290     5.4990   -36.1340 H      6212  TIP6062     0.2052
 37549 OH2         -4.9540    11.7540   -49.5950 O.3    6213  TIP6063    -0.4105
 37550 H1          -5.8550    11.6040   -49.8810 H      6213  TIP6063     0.2052
 37551 H2          -4.7810    11.0530   -48.9670 H      6213  TIP6063     0.2052
 37552 OH2         14.0030    29.7850   -38.5030 O.3    6214  TIP6064    -0.4105
 37553 H1          14.7320    30.3130   -38.1760 H      6214  TIP6064     0.2052
 37554 H2          14.0390    29.8890   -39.4540 H      6214  TIP6064     0.2052
 37555 OH2         29.4530    14.1100    53.3470 O.3    6215  TIP6065    -0.4105
 37556 H1          28.5320    14.3430    53.4680 H      6215  TIP6065     0.2052
 37557 H2          29.7990    14.7900    52.7690 H      6215  TIP6065     0.2052
 37558 OH2        -17.8140   -26.2310   -32.1810 O.3    6216  TIP6066    -0.4105
 37559 H1         -18.1490   -26.3030   -33.0750 H      6216  TIP6066     0.2052
 37560 H2         -16.9650   -26.6720   -32.2060 H      6216  TIP6066     0.2052
 37561 OH2        -17.1450    18.1800    44.6170 O.3    6217  TIP6067    -0.4105
 37562 H1         -18.0430    18.1630    44.2850 H      6217  TIP6067     0.2052
 37563 H2         -16.7250    18.8940    44.1380 H      6217  TIP6067     0.2052
 37564 OH2         27.5600   -31.2740    30.6130 O.3    6218  TIP6068    -0.4105
 37565 H1          27.0800   -31.4500    31.4220 H      6218  TIP6068     0.2052
 37566 H2          27.9800   -30.4270    30.7640 H      6218  TIP6068     0.2052
 37567 OH2          5.0480    31.2830   -31.8200 O.3    6219  TIP6069    -0.4105
 37568 H1           5.3230    31.9310   -32.4690 H      6219  TIP6069     0.2052
 37569 H2           5.6960    31.3560   -31.1190 H      6219  TIP6069     0.2052
 37570 OH2          2.6430   -17.8310    29.8230 O.3    6220  TIP6070    -0.4105
 37571 H1           3.4770   -17.6780    30.2670 H      6220  TIP6070     0.2052
 37572 H2           2.8530   -18.4510    29.1250 H      6220  TIP6070     0.2052
 37573 OH2         20.3840     3.9820   -33.4960 O.3    6221  TIP6071    -0.4105
 37574 H1          21.2520     4.2610   -33.2040 H      6221  TIP6071     0.2052
 37575 H2          20.0210     3.5060   -32.7490 H      6221  TIP6071     0.2052
 37576 OH2        -32.4770    27.6820    54.9970 O.3    6222  TIP6072    -0.4105
 37577 H1         -31.9670    26.8970    54.8000 H      6222  TIP6072     0.2052
 37578 H2         -33.3530    27.4900    54.6640 H      6222  TIP6072     0.2052
 37579 OH2         15.9010    -4.2260    35.5480 O.3    6223  TIP6073    -0.4105
 37580 H1          15.5640    -3.3580    35.3290 H      6223  TIP6073     0.2052
 37581 H2          15.1690    -4.8190    35.3770 H      6223  TIP6073     0.2052
 37582 OH2         17.8300     8.1520   -26.7810 O.3    6224  TIP6074    -0.4105
 37583 H1          17.7270     7.2260   -26.5610 H      6224  TIP6074     0.2052
 37584 H2          18.7760     8.2990   -26.7650 H      6224  TIP6074     0.2052
 37585 OH2         14.1610    21.7750   -34.8300 O.3    6225  TIP6075    -0.4105
 37586 H1          14.8040    22.3860   -34.4690 H      6225  TIP6075     0.2052
 37587 H2          14.6730    21.1940   -35.3940 H      6225  TIP6075     0.2052
 37588 OH2        -28.0330     6.3350   -52.1610 O.3    6226  TIP6076    -0.4105
 37589 H1         -28.0300     5.5960   -51.5530 H      6226  TIP6076     0.2052
 37590 H2         -28.7880     6.1770   -52.7280 H      6226  TIP6076     0.2052
 37591 OH2         -2.4180    -4.4150    45.0450 O.3    6227  TIP6077    -0.4105
 37592 H1          -2.0890    -4.1120    45.8910 H      6227  TIP6077     0.2052
 37593 H2          -2.2600    -5.3590    45.0510 H      6227  TIP6077     0.2052
 37594 OH2        -28.1500   -23.6800    40.2770 O.3    6228  TIP6078    -0.4105
 37595 H1         -27.7650   -23.4570    39.4300 H      6228  TIP6078     0.2052
 37596 H2         -29.0580   -23.3840    40.2130 H      6228  TIP6078     0.2052
 37597 OH2         29.5530   -22.5400   -46.7480 O.3    6229  TIP6079    -0.4105
 37598 H1          30.3530   -22.4730   -47.2700 H      6229  TIP6079     0.2052
 37599 H2          28.8570   -22.6750   -47.3910 H      6229  TIP6079     0.2052
 37600 OH2        -10.6080   -22.8030    35.9990 O.3    6230  TIP6080    -0.4105
 37601 H1         -10.0380   -23.5560    36.1540 H      6230  TIP6080     0.2052
 37602 H2         -10.9940   -22.9670    35.1380 H      6230  TIP6080     0.2052
 37603 OH2         -8.2420    16.1390   -38.9650 O.3    6231  TIP6081    -0.4105
 37604 H1          -8.3870    15.4930   -39.6550 H      6231  TIP6081     0.2052
 37605 H2          -7.7020    16.8140   -39.3770 H      6231  TIP6081     0.2052
 37606 OH2          2.9620    18.0810    28.9060 O.3    6232  TIP6082    -0.4105
 37607 H1           2.4280    18.3010    29.6690 H      6232  TIP6082     0.2052
 37608 H2           2.3290    17.9480    28.2010 H      6232  TIP6082     0.2052
 37609 OH2          2.9370     6.7230    48.4630 O.3    6233  TIP6083    -0.4105
 37610 H1           3.6960     6.3440    48.9060 H      6233  TIP6083     0.2052
 37611 H2           3.2390     6.8920    47.5710 H      6233  TIP6083     0.2052
 37612 OH2         -2.1980    14.3830   -48.9170 O.3    6234  TIP6084    -0.4105
 37613 H1          -1.7790    14.0100   -49.6920 H      6234  TIP6084     0.2052
 37614 H2          -3.1230    14.4510   -49.1530 H      6234  TIP6084     0.2052
 37615 OH2        -13.4370    18.1390    46.2860 O.3    6235  TIP6085    -0.4105
 37616 H1         -14.0370    17.4310    46.0510 H      6235  TIP6085     0.2052
 37617 H2         -13.9310    18.6780    46.9030 H      6235  TIP6085     0.2052
 37618 OH2        -31.9280   -14.1580    46.1510 O.3    6236  TIP6086    -0.4105
 37619 H1         -31.9910   -15.0400    45.7840 H      6236  TIP6086     0.2052
 37620 H2         -31.0430   -14.1110    46.5110 H      6236  TIP6086     0.2052
 37621 OH2        -15.8040    -3.2440    23.8200 O.3    6237  TIP6087    -0.4105
 37622 H1         -15.2360    -3.3020    24.5880 H      6237  TIP6087     0.2052
 37623 H2         -15.8480    -4.1400    23.4850 H      6237  TIP6087     0.2052
 37624 OH2         23.1190   -24.1890   -33.0580 O.3    6238  TIP6088    -0.4105
 37625 H1          23.2190   -23.4120   -32.5090 H      6238  TIP6088     0.2052
 37626 H2          23.7370   -24.0550   -33.7770 H      6238  TIP6088     0.2052
 37627 OH2        -12.8000    27.2770   -52.1110 O.3    6239  TIP6089    -0.4105
 37628 H1         -12.9150    27.6510   -51.2380 H      6239  TIP6089     0.2052
 37629 H2         -12.8300    28.0300   -52.7010 H      6239  TIP6089     0.2052
 37630 OH2        -19.2840    26.9130    54.8940 O.3    6240  TIP6090    -0.4105
 37631 H1         -18.5800    26.3370    55.1920 H      6240  TIP6090     0.2052
 37632 H2         -19.0830    27.7610    55.2890 H      6240  TIP6090     0.2052
 37633 OH2         -4.9710     9.8950    39.2080 O.3    6241  TIP6091    -0.4105
 37634 H1          -4.8210     9.0050    38.8880 H      6241  TIP6091     0.2052
 37635 H2          -4.1510    10.3550    39.0290 H      6241  TIP6091     0.2052
 37636 OH2          6.3130    11.4450    53.9010 O.3    6242  TIP6092    -0.4105
 37637 H1           5.9030    12.3090    53.9250 H      6242  TIP6092     0.2052
 37638 H2           7.2360    11.6210    53.7180 H      6242  TIP6092     0.2052
 37639 OH2         23.5240    28.7410   -32.5310 O.3    6243  TIP6093    -0.4105
 37640 H1          23.7800    28.6880   -31.6100 H      6243  TIP6093     0.2052
 37641 H2          22.5840    28.5580   -32.5300 H      6243  TIP6093     0.2052
 37642 OH2         20.8510    25.1310   -48.2860 O.3    6244  TIP6094    -0.4105
 37643 H1          20.2030    24.4270   -48.2370 H      6244  TIP6094     0.2052
 37644 H2          20.7140    25.5230   -49.1490 H      6244  TIP6094     0.2052
 37645 OH2         -9.7540     9.1350    32.5330 O.3    6245  TIP6095    -0.4105
 37646 H1         -10.5430     8.6320    32.3320 H      6245  TIP6095     0.2052
 37647 H2          -9.1040     8.4750    32.7750 H      6245  TIP6095     0.2052
 37648 OH2        -29.8850   -18.4920   -45.0530 O.3    6246  TIP6096    -0.4105
 37649 H1         -30.2630   -19.1760   -44.5000 H      6246  TIP6096     0.2052
 37650 H2         -28.9520   -18.5010   -44.8420 H      6246  TIP6096     0.2052
 37651 OH2         22.5040   -28.1050    38.3110 O.3    6247  TIP6097    -0.4105
 37652 H1          22.5930   -27.1520    38.2960 H      6247  TIP6097     0.2052
 37653 H2          21.8880   -28.3000    37.6050 H      6247  TIP6097     0.2052
 37654 OH2         28.6340    -0.7940   -48.7860 O.3    6248  TIP6098    -0.4105
 37655 H1          29.1460    -0.0020   -48.9520 H      6248  TIP6098     0.2052
 37656 H2          28.2840    -0.6730   -47.9030 H      6248  TIP6098     0.2052
 37657 OH2        -32.1150    10.0090   -28.8980 O.3    6249  TIP6099    -0.4105
 37658 H1         -32.3300     9.1610   -28.5110 H      6249  TIP6099     0.2052
 37659 H2         -31.1670    10.0880   -28.7940 H      6249  TIP6099     0.2052
 37660 OH2         -3.8600     3.7780   -21.9820 O.3    6250  TIP6100    -0.4105
 37661 H1          -4.7330     3.4220   -21.8160 H      6250  TIP6100     0.2052
 37662 H2          -3.9740     4.7270   -21.9300 H      6250  TIP6100     0.2052
 37663 OH2          7.1100   -31.1420    36.0590 O.3    6251  TIP6101    -0.4105
 37664 H1           6.7190   -31.8300    36.5970 H      6251  TIP6101     0.2052
 37665 H2           6.4550   -30.9640    35.3830 H      6251  TIP6101     0.2052
 37666 OH2          7.7880    11.9040   -49.1900 O.3    6252  TIP6102    -0.4105
 37667 H1           7.9590    12.8340   -49.3380 H      6252  TIP6102     0.2052
 37668 H2           7.7640    11.8140   -48.2370 H      6252  TIP6102     0.2052
 37669 OH2         24.5320   -11.1390    40.4490 O.3    6253  TIP6103    -0.4105
 37670 H1          25.1760   -11.4530    39.8140 H      6253  TIP6103     0.2052
 37671 H2          24.3760   -10.2280    40.2020 H      6253  TIP6103     0.2052
 37672 OH2        -20.7730     9.0590    40.8580 O.3    6254  TIP6104    -0.4105
 37673 H1         -20.7870     8.6040    40.0160 H      6254  TIP6104     0.2052
 37674 H2         -21.5800     9.5730    40.8670 H      6254  TIP6104     0.2052
 37675 OH2        -31.5990   -25.1170    48.4620 O.3    6255  TIP6105    -0.4105
 37676 H1         -32.3070   -24.6120    48.8630 H      6255  TIP6105     0.2052
 37677 H2         -31.6560   -24.9120    47.5290 H      6255  TIP6105     0.2052
 37678 OH2         29.9430    27.1560    35.2190 O.3    6256  TIP6106    -0.4105
 37679 H1          30.1270    26.7480    36.0650 H      6256  TIP6106     0.2052
 37680 H2          30.4070    26.6110    34.5830 H      6256  TIP6106     0.2052
 37681 OH2        -23.3880   -13.7120    52.6370 O.3    6257  TIP6107    -0.4105
 37682 H1         -23.1250   -14.3250    53.3240 H      6257  TIP6107     0.2052
 37683 H2         -22.6310   -13.6670    52.0530 H      6257  TIP6107     0.2052
 37684 OH2        -21.0620   -29.2660    23.9120 O.3    6258  TIP6108    -0.4105
 37685 H1         -21.3530   -29.3390    24.8210 H      6258  TIP6108     0.2052
 37686 H2         -21.8190   -28.9130    23.4450 H      6258  TIP6108     0.2052
 37687 OH2          8.8640    21.2980    51.2160 O.3    6259  TIP6109    -0.4105
 37688 H1           9.1770    22.0910    51.6520 H      6259  TIP6109     0.2052
 37689 H2           9.2410    20.5810    51.7250 H      6259  TIP6109     0.2052
 37690 OH2         26.3160     3.7310   -54.8900 O.3    6260  TIP6110    -0.4105
 37691 H1          26.6440     3.7370   -55.7900 H      6260  TIP6110     0.2052
 37692 H2          27.0950     3.5890   -54.3520 H      6260  TIP6110     0.2052
 37693 OH2         27.6750   -19.8970    30.4360 O.3    6261  TIP6111    -0.4105
 37694 H1          27.7370   -19.3020    31.1830 H      6261  TIP6111     0.2052
 37695 H2          28.1900   -20.6610    30.6940 H      6261  TIP6111     0.2052
 37696 OH2        -15.8470     3.2150   -36.7070 O.3    6262  TIP6112    -0.4105
 37697 H1         -16.6910     2.9600   -36.3350 H      6262  TIP6112     0.2052
 37698 H2         -15.8100     4.1640   -36.5870 H      6262  TIP6112     0.2052
 37699 OH2         27.8830    -0.4380   -46.2190 O.3    6263  TIP6113    -0.4105
 37700 H1          27.9670    -1.0430   -45.4820 H      6263  TIP6113     0.2052
 37701 H2          27.5640     0.3750   -45.8280 H      6263  TIP6113     0.2052
 37702 OH2         32.9650     4.7650   -54.8060 O.3    6264  TIP6114    -0.4105
 37703 H1          33.1960     5.4450   -55.4390 H      6264  TIP6114     0.2052
 37704 H2          32.4780     4.1180   -55.3160 H      6264  TIP6114     0.2052
 37705 OH2         21.8290    -0.4000   -12.0970 O.3    6265  TIP6115    -0.4105
 37706 H1          20.9980    -0.7690   -12.3970 H      6265  TIP6115     0.2052
 37707 H2          21.9870     0.3400   -12.6830 H      6265  TIP6115     0.2052
 37708 OH2         23.5160    -4.1950    32.8860 O.3    6266  TIP6116    -0.4105
 37709 H1          23.9990    -3.9580    33.6770 H      6266  TIP6116     0.2052
 37710 H2          24.1330    -4.0370    32.1710 H      6266  TIP6116     0.2052
 37711 OH2         26.5000   -14.8430   -49.1000 O.3    6267  TIP6117    -0.4105
 37712 H1          25.5590   -14.8360   -48.9250 H      6267  TIP6117     0.2052
 37713 H2          26.7950   -13.9640   -48.8630 H      6267  TIP6117     0.2052
 37714 OH2         20.2960     9.7010   -41.2130 O.3    6268  TIP6118    -0.4105
 37715 H1          20.2230     9.0430   -40.5210 H      6268  TIP6118     0.2052
 37716 H2          21.0510    10.2320   -40.9600 H      6268  TIP6118     0.2052
 37717 OH2        -11.8450    21.6680   -43.7120 O.3    6269  TIP6119    -0.4105
 37718 H1         -12.5750    21.4670   -44.2980 H      6269  TIP6119     0.2052
 37719 H2         -12.2560    22.0590   -42.9410 H      6269  TIP6119     0.2052
 37720 OH2        -31.8940     5.2260   -37.9330 O.3    6270  TIP6120    -0.4105
 37721 H1         -31.8700     6.1800   -38.0110 H      6270  TIP6120     0.2052
 37722 H2         -32.7740     4.9830   -38.2190 H      6270  TIP6120     0.2052
 37723 OH2         27.9210   -19.6780   -28.0940 O.3    6271  TIP6121    -0.4105
 37724 H1          28.2910   -20.4100   -28.5870 H      6271  TIP6121     0.2052
 37725 H2          28.1670   -18.9010   -28.5960 H      6271  TIP6121     0.2052
 37726 OH2         22.0320    23.4450   -53.7100 O.3    6272  TIP6122    -0.4105
 37727 H1          21.4800    22.7950   -54.1440 H      6272  TIP6122     0.2052
 37728 H2          22.1050    24.1590   -54.3430 H      6272  TIP6122     0.2052
 37729 OH2         10.6170    14.5600    53.4990 O.3    6273  TIP6123    -0.4105
 37730 H1          10.3900    13.9000    54.1540 H      6273  TIP6123     0.2052
 37731 H2          11.1950    15.1680    53.9610 H      6273  TIP6123     0.2052
 37732 OH2         23.0050    11.4780   -22.3880 O.3    6274  TIP6124    -0.4105
 37733 H1          22.8050    11.2650   -23.2990 H      6274  TIP6124     0.2052
 37734 H2          23.5250    12.2800   -22.4380 H      6274  TIP6124     0.2052
 37735 OH2         30.7690   -14.9060    53.9580 O.3    6275  TIP6125    -0.4105
 37736 H1          31.6380   -15.2080    53.6940 H      6275  TIP6125     0.2052
 37737 H2          30.7100   -14.0150    53.6120 H      6275  TIP6125     0.2052
 37738 OH2         24.9350   -16.6590    51.7790 O.3    6276  TIP6126    -0.4105
 37739 H1          25.8330   -16.6780    52.1100 H      6276  TIP6126     0.2052
 37740 H2          24.9380   -17.2710    51.0430 H      6276  TIP6126     0.2052
 37741 OH2          0.6480     6.4790   -52.0460 O.3    6277  TIP6127    -0.4105
 37742 H1           1.4650     6.8060   -52.4210 H      6277  TIP6127     0.2052
 37743 H2           0.9130     5.7340   -51.5060 H      6277  TIP6127     0.2052
 37744 OH2         17.2930    24.1310   -26.6850 O.3    6278  TIP6128    -0.4105
 37745 H1          16.6480    23.7250   -27.2630 H      6278  TIP6128     0.2052
 37746 H2          16.9850    25.0310   -26.5760 H      6278  TIP6128     0.2052
 37747 OH2         12.6640    23.8950    21.2390 O.3    6279  TIP6129    -0.4105
 37748 H1          13.2960    24.4820    20.8240 H      6279  TIP6129     0.2052
 37749 H2          11.8100    24.2370    20.9760 H      6279  TIP6129     0.2052
 37750 OH2          5.3030   -13.2670   -29.7910 O.3    6280  TIP6130    -0.4105
 37751 H1           5.8190   -13.7810   -30.4130 H      6280  TIP6130     0.2052
 37752 H2           4.5280   -12.9990   -30.2850 H      6280  TIP6130     0.2052
 37753 OH2         26.8400   -23.8450    36.0990 O.3    6281  TIP6131    -0.4105
 37754 H1          26.8870   -23.8140    35.1430 H      6281  TIP6131     0.2052
 37755 H2          27.2900   -23.0500    36.3860 H      6281  TIP6131     0.2052
 37756 OH2        -24.6570   -24.4640    21.2850 O.3    6282  TIP6132    -0.4105
 37757 H1         -25.2850   -23.9460    20.7810 H      6282  TIP6132     0.2052
 37758 H2         -23.9560   -24.6620    20.6640 H      6282  TIP6132     0.2052
 37759 OH2         26.3660   -26.9910    29.9030 O.3    6283  TIP6133    -0.4105
 37760 H1          25.9980   -27.7210    29.4050 H      6283  TIP6133     0.2052
 37761 H2          25.7380   -26.2790    29.7840 H      6283  TIP6133     0.2052
 37762 OH2          7.9030    -9.9990    28.1100 O.3    6284  TIP6134    -0.4105
 37763 H1           7.3730   -10.3030    27.3730 H      6284  TIP6134     0.2052
 37764 H2           7.2670    -9.6720    28.7450 H      6284  TIP6134     0.2052
 37765 OH2        -20.8050    24.0380    54.2360 O.3    6285  TIP6135    -0.4105
 37766 H1         -21.5320    24.2400    53.6460 H      6285  TIP6135     0.2052
 37767 H2         -20.6070    24.8700    54.6650 H      6285  TIP6135     0.2052
 37768 OH2          0.8550     7.7200   -45.4990 O.3    6286  TIP6136    -0.4105
 37769 H1           0.7930     7.4940   -46.4270 H      6286  TIP6136     0.2052
 37770 H2           0.5210     8.6160   -45.4480 H      6286  TIP6136     0.2052
 37771 OH2          3.0890   -25.1460   -38.7470 O.3    6287  TIP6137    -0.4105
 37772 H1           3.8560   -24.7180   -38.3680 H      6287  TIP6137     0.2052
 37773 H2           2.3430   -24.6920   -38.3570 H      6287  TIP6137     0.2052
 37774 OH2        -10.8740    -9.8740   -19.7840 O.3    6288  TIP6138    -0.4105
 37775 H1         -10.5530    -9.2420   -19.1410 H      6288  TIP6138     0.2052
 37776 H2         -11.1930   -10.6090   -19.2600 H      6288  TIP6138     0.2052
 37777 OH2         16.8850    -0.2120   -26.7670 O.3    6289  TIP6139    -0.4105
 37778 H1          16.2710     0.5210   -26.7300 H      6289  TIP6139     0.2052
 37779 H2          16.6630    -0.6700   -27.5770 H      6289  TIP6139     0.2052
 37780 OH2          8.1370    32.2060   -52.3040 O.3    6290  TIP6140    -0.4105
 37781 H1           7.3180    32.0030   -52.7560 H      6290  TIP6140     0.2052
 37782 H2           8.2320    33.1540   -52.3910 H      6290  TIP6140     0.2052
 37783 OH2         -3.7750   -29.6130   -43.9450 O.3    6291  TIP6141    -0.4105
 37784 H1          -3.8080   -30.4920   -44.3220 H      6291  TIP6141     0.2052
 37785 H2          -4.6830   -29.4190   -43.7090 H      6291  TIP6141     0.2052
 37786 OH2         24.9360   -14.0840    41.1230 O.3    6292  TIP6142    -0.4105
 37787 H1          24.8420   -13.7040    41.9970 H      6292  TIP6142     0.2052
 37788 H2          24.0830   -13.9480    40.7100 H      6292  TIP6142     0.2052
 37789 OH2         32.0750   -16.4220   -49.8670 O.3    6293  TIP6143    -0.4105
 37790 H1          31.5420   -15.6510   -50.0590 H      6293  TIP6143     0.2052
 37791 H2          32.2320   -16.8240   -50.7220 H      6293  TIP6143     0.2052
 37792 OH2        -26.4400     5.0570    43.8310 O.3    6294  TIP6144    -0.4105
 37793 H1         -25.4980     5.1590    43.6940 H      6294  TIP6144     0.2052
 37794 H2         -26.8380     5.4200    43.0390 H      6294  TIP6144     0.2052
 37795 OH2         32.4710    -0.3820    38.5340 O.3    6295  TIP6145    -0.4105
 37796 H1          33.1280    -1.0770    38.5030 H      6295  TIP6145     0.2052
 37797 H2          32.3960    -0.0830    37.6270 H      6295  TIP6145     0.2052
 37798 OH2        -31.9950     8.6710   -35.2110 O.3    6296  TIP6146    -0.4105
 37799 H1         -31.6310     9.4750   -35.5810 H      6296  TIP6146     0.2052
 37800 H2         -31.2390     8.0940   -35.1010 H      6296  TIP6146     0.2052
 37801 OH2         -9.6200    28.5920   -42.6730 O.3    6297  TIP6147    -0.4105
 37802 H1          -9.8290    28.3450   -41.7720 H      6297  TIP6147     0.2052
 37803 H2          -9.0800    29.3770   -42.5870 H      6297  TIP6147     0.2052
 37804 OH2        -18.3200    -5.7990    52.1740 O.3    6298  TIP6148    -0.4105
 37805 H1         -18.4070    -5.6100    51.2400 H      6298  TIP6148     0.2052
 37806 H2         -17.9180    -5.0120    52.5420 H      6298  TIP6148     0.2052
 37807 OH2          8.0640     5.1690   -22.7620 O.3    6299  TIP6149    -0.4105
 37808 H1           7.4560     5.8080   -23.1360 H      6299  TIP6149     0.2052
 37809 H2           7.8870     5.1920   -21.8220 H      6299  TIP6149     0.2052
 37810 OH2          5.6970    -9.2580    41.1110 O.3    6300  TIP6150    -0.4105
 37811 H1           5.0270    -9.3090    41.7920 H      6300  TIP6150     0.2052
 37812 H2           6.2980    -8.5780    41.4170 H      6300  TIP6150     0.2052
 37813 OH2        -29.9070    -6.4520    16.0510 O.3    6301  TIP6151    -0.4105
 37814 H1         -29.5460    -5.9100    16.7530 H      6301  TIP6151     0.2052
 37815 H2         -30.8380    -6.2330    16.0340 H      6301  TIP6151     0.2052
 37816 OH2          6.0490    22.8610    54.1000 O.3    6302  TIP6152    -0.4105
 37817 H1           5.7570    23.7160    53.7860 H      6302  TIP6152     0.2052
 37818 H2           6.4640    23.0450    54.9430 H      6302  TIP6152     0.2052
 37819 OH2        -23.5520   -13.3960   -44.8830 O.3    6303  TIP6153    -0.4105
 37820 H1         -22.8010   -13.2820   -44.3000 H      6303  TIP6153     0.2052
 37821 H2         -23.2460   -13.0840   -45.7340 H      6303  TIP6153     0.2052
 37822 OH2         32.3720    17.4250    48.1380 O.3    6304  TIP6154    -0.4105
 37823 H1          33.0690    17.3770    48.7930 H      6304  TIP6154     0.2052
 37824 H2          32.0750    16.5210    48.0370 H      6304  TIP6154     0.2052
 37825 OH2         10.0440    16.9460   -28.3860 O.3    6305  TIP6155    -0.4105
 37826 H1           9.2490    17.2850   -28.7960 H      6305  TIP6155     0.2052
 37827 H2          10.4770    17.7200   -28.0250 H      6305  TIP6155     0.2052
 37828 OH2         25.7730    -8.0320    33.8400 O.3    6306  TIP6156    -0.4105
 37829 H1          25.4160    -7.7190    34.6710 H      6306  TIP6156     0.2052
 37830 H2          26.4400    -8.6720    34.0900 H      6306  TIP6156     0.2052
 37831 OH2         -5.6170    16.8770   -50.3830 O.3    6307  TIP6157    -0.4105
 37832 H1          -5.2410    15.9980   -50.4300 H      6307  TIP6157     0.2052
 37833 H2          -5.7220    17.0440   -49.4470 H      6307  TIP6157     0.2052
 37834 OH2        -24.5290   -26.1470    26.2810 O.3    6308  TIP6158    -0.4105
 37835 H1         -24.9860   -25.8590    27.0710 H      6308  TIP6158     0.2052
 37836 H2         -23.8360   -25.5000    26.1550 H      6308  TIP6158     0.2052
 37837 OH2         -0.6660     0.0370    -9.5450 O.3    6309  TIP6159    -0.4105
 37838 H1           0.0880    -0.2870    -9.0510 H      6309  TIP6159     0.2052
 37839 H2          -1.2200     0.4570    -8.8870 H      6309  TIP6159     0.2052
 37840 OH2        -26.3900    -2.7760   -28.7140 O.3    6310  TIP6160    -0.4105
 37841 H1         -25.7550    -2.1400   -29.0420 H      6310  TIP6160     0.2052
 37842 H2         -25.8660    -3.4070   -28.2210 H      6310  TIP6160     0.2052
 37843 OH2          2.6800    -7.8840   -42.0340 O.3    6311  TIP6161    -0.4105
 37844 H1           3.2170    -8.6390   -42.2760 H      6311  TIP6161     0.2052
 37845 H2           3.0900    -7.1450   -42.4840 H      6311  TIP6161     0.2052
 37846 OH2         -3.0120    -4.5580    25.0090 O.3    6312  TIP6162    -0.4105
 37847 H1          -2.5560    -3.7960    24.6520 H      6312  TIP6162     0.2052
 37848 H2          -2.3130    -5.1700    25.2380 H      6312  TIP6162     0.2052
 37849 OH2         10.3660     1.8970    27.9500 O.3    6313  TIP6163    -0.4105
 37850 H1          10.3310     1.1400    27.3650 H      6313  TIP6163     0.2052
 37851 H2           9.4570     2.0400    28.2130 H      6313  TIP6163     0.2052
 37852 OH2          9.8510    17.2020    36.6190 O.3    6314  TIP6164    -0.4105
 37853 H1          10.5790    16.5830    36.5710 H      6314  TIP6164     0.2052
 37854 H2          10.2640    18.0640    36.5570 H      6314  TIP6164     0.2052
 37855 OH2        -31.2210   -33.0400    40.9320 O.3    6315  TIP6165    -0.4105
 37856 H1         -31.1860   -33.8790    40.4730 H      6315  TIP6165     0.2052
 37857 H2         -30.4530   -33.0460    41.5030 H      6315  TIP6165     0.2052
 37858 OH2        -28.8300    20.6680   -35.3170 O.3    6316  TIP6166    -0.4105
 37859 H1         -28.9420    19.7610   -35.6040 H      6316  TIP6166     0.2052
 37860 H2         -28.2630    21.0610   -35.9810 H      6316  TIP6166     0.2052
 37861 OH2          6.6420    23.3690   -21.8020 O.3    6317  TIP6167    -0.4105
 37862 H1           5.9830    22.7440   -21.5010 H      6317  TIP6167     0.2052
 37863 H2           6.1610    24.1890   -21.9160 H      6317  TIP6167     0.2052
 37864 OH2        -22.7710    -1.3110    41.4480 O.3    6318  TIP6168    -0.4105
 37865 H1         -22.1260    -0.6190    41.2960 H      6318  TIP6168     0.2052
 37866 H2         -22.8560    -1.7480    40.6010 H      6318  TIP6168     0.2052
 37867 OH2         -7.7770    -9.8780    21.2430 O.3    6319  TIP6169    -0.4105
 37868 H1          -7.2940    -9.0530    21.3030 H      6319  TIP6169     0.2052
 37869 H2          -7.4810   -10.2700    20.4210 H      6319  TIP6169     0.2052
 37870 OH2        -28.7810    -9.6710   -42.5180 O.3    6320  TIP6170    -0.4105
 37871 H1         -29.0920   -10.5320   -42.2380 H      6320  TIP6170     0.2052
 37872 H2         -29.4330    -9.3760   -43.1530 H      6320  TIP6170     0.2052
 37873 OH2         -8.3510    27.0960   -54.4980 O.3    6321  TIP6171    -0.4105
 37874 H1          -8.3740    28.0460   -54.6130 H      6321  TIP6171     0.2052
 37875 H2          -7.4380    26.8570   -54.6580 H      6321  TIP6171     0.2052
 37876 OH2         18.6220    14.2850   -46.0020 O.3    6322  TIP6172    -0.4105
 37877 H1          18.3490    13.3730   -45.9060 H      6322  TIP6172     0.2052
 37878 H2          19.5480    14.2350   -46.2410 H      6322  TIP6172     0.2052
 37879 OH2        -29.7020     7.1670   -28.3380 O.3    6323  TIP6173    -0.4105
 37880 H1         -30.6550     7.1000   -28.2810 H      6323  TIP6173     0.2052
 37881 H2         -29.5280     8.1080   -28.3750 H      6323  TIP6173     0.2052
 37882 OH2         -3.9760     9.8230   -16.0640 O.3    6324  TIP6174    -0.4105
 37883 H1          -3.5640    10.0950   -16.8840 H      6324  TIP6174     0.2052
 37884 H2          -4.5500    10.5530   -15.8310 H      6324  TIP6174     0.2052
 37885 OH2        -21.9820    17.6280   -46.6070 O.3    6325  TIP6175    -0.4105
 37886 H1         -22.3080    16.7880   -46.2820 H      6325  TIP6175     0.2052
 37887 H2         -22.4500    17.7640   -47.4310 H      6325  TIP6175     0.2052
 37888 OH2        -22.4850    24.2750   -21.8560 O.3    6326  TIP6176    -0.4105
 37889 H1         -23.4320    24.2550   -21.7200 H      6326  TIP6176     0.2052
 37890 H2         -22.1850    25.0310   -21.3510 H      6326  TIP6176     0.2052
 37891 OH2         27.3890   -32.2780   -51.1110 O.3    6327  TIP6177    -0.4105
 37892 H1          26.5380   -32.1550   -50.6890 H      6327  TIP6177     0.2052
 37893 H2          27.2580   -33.0190   -51.7030 H      6327  TIP6177     0.2052
 37894 OH2          1.6700    13.1190   -33.7480 O.3    6328  TIP6178    -0.4105
 37895 H1           0.7720    13.2810   -33.4590 H      6328  TIP6178     0.2052
 37896 H2           1.6930    13.4400   -34.6490 H      6328  TIP6178     0.2052
 37897 OH2          1.4630   -31.0190    48.5020 O.3    6329  TIP6179    -0.4105
 37898 H1           1.5100   -30.2820    47.8930 H      6329  TIP6179     0.2052
 37899 H2           1.1130   -31.7400    47.9780 H      6329  TIP6179     0.2052
 37900 OH2         14.2980    19.0210    39.9930 O.3    6330  TIP6180    -0.4105
 37901 H1          15.1150    19.2820    40.4180 H      6330  TIP6180     0.2052
 37902 H2          14.5520    18.3180    39.3960 H      6330  TIP6180     0.2052
 37903 OH2        -24.8880    24.6760   -48.0150 O.3    6331  TIP6181    -0.4105
 37904 H1         -25.6110    24.9720   -48.5680 H      6331  TIP6181     0.2052
 37905 H2         -25.3100    24.1740   -47.3170 H      6331  TIP6181     0.2052
 37906 OH2         27.0930    -9.8530    27.2810 O.3    6332  TIP6182    -0.4105
 37907 H1          27.2370   -10.0790    28.1990 H      6332  TIP6182     0.2052
 37908 H2          26.3570    -9.2400    27.2960 H      6332  TIP6182     0.2052
 37909 OH2         27.4060    21.5320   -34.5420 O.3    6333  TIP6183    -0.4105
 37910 H1          27.8950    21.8250   -35.3120 H      6333  TIP6183     0.2052
 37911 H2          26.6370    22.1020   -34.5150 H      6333  TIP6183     0.2052
 37912 OH2         21.8480    -0.9920    41.9390 O.3    6334  TIP6184    -0.4105
 37913 H1          21.5770    -1.7080    42.5130 H      6334  TIP6184     0.2052
 37914 H2          21.1530    -0.9330    41.2840 H      6334  TIP6184     0.2052
 37915 OH2          9.0990   -22.7070   -51.7540 O.3    6335  TIP6185    -0.4105
 37916 H1           9.6640   -23.3600   -52.1680 H      6335  TIP6185     0.2052
 37917 H2           8.2210   -22.9120   -52.0730 H      6335  TIP6185     0.2052
 37918 OH2        -29.3310     7.0320   -38.5790 O.3    6336  TIP6186    -0.4105
 37919 H1         -30.1710     7.4870   -38.6430 H      6336  TIP6186     0.2052
 37920 H2         -28.7000     7.7230   -38.3770 H      6336  TIP6186     0.2052
 37921 OH2         17.6890   -32.5960    44.3830 O.3    6337  TIP6187    -0.4105
 37922 H1          17.8640   -32.9870    43.5270 H      6337  TIP6187     0.2052
 37923 H2          16.7400   -32.4710    44.4000 H      6337  TIP6187     0.2052
 37924 OH2        -25.1310     2.9420   -18.9400 O.3    6338  TIP6188    -0.4105
 37925 H1         -25.0380     3.7210   -18.3910 H      6338  TIP6188     0.2052
 37926 H2         -24.4530     2.3440   -18.6240 H      6338  TIP6188     0.2052
 37927 OH2        -31.0880   -17.2230   -25.8300 O.3    6339  TIP6189    -0.4105
 37928 H1         -31.6190   -16.7510   -26.4720 H      6339  TIP6189     0.2052
 37929 H2         -31.7100   -17.4860   -25.1520 H      6339  TIP6189     0.2052
 37930 OH2         21.7580    10.8670   -33.8340 O.3    6340  TIP6190    -0.4105
 37931 H1          21.5420    11.7420   -34.1570 H      6340  TIP6190     0.2052
 37932 H2          22.0100    10.3780   -34.6170 H      6340  TIP6190     0.2052
 37933 OH2         28.2470   -21.1830    54.8580 O.3    6341  TIP6191    -0.4105
 37934 H1          28.6560   -20.3500    55.0930 H      6341  TIP6191     0.2052
 37935 H2          28.1660   -21.1510    53.9050 H      6341  TIP6191     0.2052
 37936 OH2          5.7780     4.4420    29.7680 O.3    6342  TIP6192    -0.4105
 37937 H1           5.6360     3.7060    30.3630 H      6342  TIP6192     0.2052
 37938 H2           5.6800     4.0650    28.8930 H      6342  TIP6192     0.2052
 37939 OH2         28.7380   -10.3450    17.0980 O.3    6343  TIP6193    -0.4105
 37940 H1          29.4930   -10.3730    17.6860 H      6343  TIP6193     0.2052
 37941 H2          28.7500    -9.4600    16.7340 H      6343  TIP6193     0.2052
 37942 OH2         13.8790    23.4000   -53.5290 O.3    6344  TIP6194    -0.4105
 37943 H1          13.4320    22.8310   -54.1560 H      6344  TIP6194     0.2052
 37944 H2          14.1240    24.1720   -54.0400 H      6344  TIP6194     0.2052
 37945 OH2          4.1050    30.9280   -49.9810 O.3    6345  TIP6195    -0.4105
 37946 H1           5.0530    31.0120   -50.0770 H      6345  TIP6195     0.2052
 37947 H2           3.7640    31.7970   -50.1920 H      6345  TIP6195     0.2052
 37948 OH2         -5.6470   -16.0330    42.0380 O.3    6346  TIP6196    -0.4105
 37949 H1          -4.8030   -15.9880    41.5880 H      6346  TIP6196     0.2052
 37950 H2          -5.9580   -15.1280    42.0530 H      6346  TIP6196     0.2052
 37951 OH2         -0.3300    21.5410    21.9370 O.3    6347  TIP6197    -0.4105
 37952 H1           0.5050    21.0940    22.0770 H      6347  TIP6197     0.2052
 37953 H2          -0.8130    20.9650    21.3440 H      6347  TIP6197     0.2052
 37954 OH2          3.3970    14.1680   -50.5020 O.3    6348  TIP6198    -0.4105
 37955 H1           2.6990    13.7980   -51.0430 H      6348  TIP6198     0.2052
 37956 H2           3.1250    13.9840   -49.6020 H      6348  TIP6198     0.2052
 37957 OH2        -27.0680    21.8160   -23.9310 O.3    6349  TIP6199    -0.4105
 37958 H1         -27.7540    21.5540   -23.3180 H      6349  TIP6199     0.2052
 37959 H2         -26.5390    21.0270   -24.0510 H      6349  TIP6199     0.2052
 37960 OH2        -27.3940     4.9690    41.3510 O.3    6350  TIP6200    -0.4105
 37961 H1         -26.5820     4.8540    40.8560 H      6350  TIP6200     0.2052
 37962 H2         -27.6430     4.0830    41.6140 H      6350  TIP6200     0.2052
 37963 OH2         15.8910    -5.0420   -30.7760 O.3    6351  TIP6201    -0.4105
 37964 H1          15.3180    -4.9740   -30.0130 H      6351  TIP6201     0.2052
 37965 H2          15.9340    -5.9800   -30.9610 H      6351  TIP6201     0.2052
 37966 OH2        -21.4680    10.2460   -26.1690 O.3    6352  TIP6202    -0.4105
 37967 H1         -20.8110    10.5810   -25.5590 H      6352  TIP6202     0.2052
 37968 H2         -20.9600     9.8940   -26.8990 H      6352  TIP6202     0.2052
 37969 OH2          2.3560    -6.3530   -35.4360 O.3    6353  TIP6203    -0.4105
 37970 H1           1.4530    -6.2760   -35.7450 H      6353  TIP6203     0.2052
 37971 H2           2.7950    -5.5760   -35.7810 H      6353  TIP6203     0.2052
 37972 OH2         11.3630    10.5720   -16.6000 O.3    6354  TIP6204    -0.4105
 37973 H1          11.6300    11.2190   -17.2520 H      6354  TIP6204     0.2052
 37974 H2          11.4310     9.7320   -17.0530 H      6354  TIP6204     0.2052
 37975 OH2         19.2620   -18.6600   -40.4600 O.3    6355  TIP6205    -0.4105
 37976 H1          19.6610   -19.0940   -41.2140 H      6355  TIP6205     0.2052
 37977 H2          18.5860   -19.2680   -40.1630 H      6355  TIP6205     0.2052
 37978 OH2        -32.9670   -28.7750   -53.9350 O.3    6356  TIP6206    -0.4105
 37979 H1         -33.4700   -28.7110   -53.1230 H      6356  TIP6206     0.2052
 37980 H2         -32.0600   -28.6290   -53.6680 H      6356  TIP6206     0.2052
 37981 OH2         -1.6370   -10.4990   -35.7250 O.3    6357  TIP6207    -0.4105
 37982 H1          -1.8370    -9.6210   -35.4020 H      6357  TIP6207     0.2052
 37983 H2          -1.3800   -10.3660   -36.6370 H      6357  TIP6207     0.2052
 37984 OH2         27.6100    19.3630    33.9280 O.3    6358  TIP6208    -0.4105
 37985 H1          27.8150    18.6680    33.3030 H      6358  TIP6208     0.2052
 37986 H2          27.9550    19.0450    34.7620 H      6358  TIP6208     0.2052
 37987 OH2        -30.8320   -16.0630    31.4440 O.3    6359  TIP6209    -0.4105
 37988 H1         -31.2280   -15.3050    31.8740 H      6359  TIP6209     0.2052
 37989 H2         -31.2300   -16.0800    30.5740 H      6359  TIP6209     0.2052
 37990 OH2         20.5420   -32.7660   -46.5220 O.3    6360  TIP6210    -0.4105
 37991 H1          19.7640   -32.8800   -47.0690 H      6360  TIP6210     0.2052
 37992 H2          21.1880   -32.3670   -47.1040 H      6360  TIP6210     0.2052
 37993 OH2         31.4360    16.8050   -23.0420 O.3    6361  TIP6211    -0.4105
 37994 H1          32.3850    16.7540   -23.1560 H      6361  TIP6211     0.2052
 37995 H2          31.2860    17.6700   -22.6620 H      6361  TIP6211     0.2052
 37996 OH2         -5.6870    -1.7170   -31.1010 O.3    6362  TIP6212    -0.4105
 37997 H1          -6.4100    -1.1290   -31.3220 H      6362  TIP6212     0.2052
 37998 H2          -5.6150    -1.6620   -30.1480 H      6362  TIP6212     0.2052
 37999 OH2        -25.1950     7.6760   -53.0670 O.3    6363  TIP6213    -0.4105
 38000 H1         -26.0460     7.2720   -53.2350 H      6363  TIP6213     0.2052
 38001 H2         -25.3960     8.4470   -52.5370 H      6363  TIP6213     0.2052
 38002 OH2         23.9310   -13.2780   -45.0900 O.3    6364  TIP6214    -0.4105
 38003 H1          23.4130   -13.6100   -44.3570 H      6364  TIP6214     0.2052
 38004 H2          24.6360   -12.7770   -44.6770 H      6364  TIP6214     0.2052
 38005 OH2          3.0270   -27.5330   -37.4850 O.3    6365  TIP6215    -0.4105
 38006 H1           3.0330   -26.6870   -37.9320 H      6365  TIP6215     0.2052
 38007 H2           3.8020   -27.9860   -37.8170 H      6365  TIP6215     0.2052
 38008 OH2          9.9260    -6.2960   -37.4280 O.3    6366  TIP6216    -0.4105
 38009 H1          10.5490    -5.5780   -37.5380 H      6366  TIP6216     0.2052
 38010 H2          10.3090    -7.0240   -37.9170 H      6366  TIP6216     0.2052
 38011 OH2         -8.4610     9.2830   -35.6720 O.3    6367  TIP6217    -0.4105
 38012 H1          -8.5950     8.9880   -34.7720 H      6367  TIP6217     0.2052
 38013 H2          -7.9920     8.5640   -36.0940 H      6367  TIP6217     0.2052
 38014 OH2         -4.2200    13.7380    21.5950 O.3    6368  TIP6218    -0.4105
 38015 H1          -4.6560    12.8860    21.5740 H      6368  TIP6218     0.2052
 38016 H2          -3.3630    13.5780    21.1990 H      6368  TIP6218     0.2052
 38017 OH2        -30.5790   -33.0380    47.8840 O.3    6369  TIP6219    -0.4105
 38018 H1         -30.0120   -33.2850    47.1540 H      6369  TIP6219     0.2052
 38019 H2         -31.0150   -33.8530    48.1350 H      6369  TIP6219     0.2052
 38020 OH2         23.8330     6.0420    31.3860 O.3    6370  TIP6220    -0.4105
 38021 H1          23.0690     5.5020    31.1810 H      6370  TIP6220     0.2052
 38022 H2          24.5440     5.4130    31.5090 H      6370  TIP6220     0.2052
 38023 OH2          3.2380    -0.6020    40.9620 O.3    6371  TIP6221    -0.4105
 38024 H1           3.8590    -0.7180    41.6810 H      6371  TIP6221     0.2052
 38025 H2           2.3800    -0.5940    41.3860 H      6371  TIP6221     0.2052
 38026 OH2          4.3690   -15.5230    27.6790 O.3    6372  TIP6222    -0.4105
 38027 H1           4.4650   -15.7120    26.7460 H      6372  TIP6222     0.2052
 38028 H2           5.2300   -15.7120    28.0520 H      6372  TIP6222     0.2052
 38029 OH2        -17.1130   -12.6030    25.9100 O.3    6373  TIP6223    -0.4105
 38030 H1         -16.6520   -11.7700    26.0050 H      6373  TIP6223     0.2052
 38031 H2         -17.7780   -12.4360    25.2420 H      6373  TIP6223     0.2052
 38032 OH2         -5.6520     7.2690   -33.3680 O.3    6374  TIP6224    -0.4105
 38033 H1          -5.8770     7.2910   -34.2980 H      6374  TIP6224     0.2052
 38034 H2          -4.7130     7.4480   -33.3440 H      6374  TIP6224     0.2052
 38035 OH2         18.7550   -28.9410   -31.2980 O.3    6375  TIP6225    -0.4105
 38036 H1          19.4470   -28.9930   -31.9570 H      6375  TIP6225     0.2052
 38037 H2          17.9640   -29.2230   -31.7570 H      6375  TIP6225     0.2052
 38038 OH2         -6.4890    27.9920    44.9660 O.3    6376  TIP6226    -0.4105
 38039 H1          -6.7680    28.8610    44.6790 H      6376  TIP6226     0.2052
 38040 H2          -6.0940    27.5980    44.1880 H      6376  TIP6226     0.2052
 38041 OH2        -27.2320    -9.9720   -27.4370 O.3    6377  TIP6227    -0.4105
 38042 H1         -26.8520   -10.8500   -27.4600 H      6377  TIP6227     0.2052
 38043 H2         -28.1400   -10.0960   -27.7110 H      6377  TIP6227     0.2052
 38044 OH2        -31.3460   -19.9830    53.4210 O.3    6378  TIP6228    -0.4105
 38045 H1         -31.4550   -20.6760    52.7700 H      6378  TIP6228     0.2052
 38046 H2         -30.8110   -20.3810    54.1080 H      6378  TIP6228     0.2052
 38047 OH2         -1.4980   -20.7330   -27.1520 O.3    6379  TIP6229    -0.4105
 38048 H1          -2.3770   -21.1120   -27.1670 H      6379  TIP6229     0.2052
 38049 H2          -1.5760   -19.9250   -27.6600 H      6379  TIP6229     0.2052
 38050 OH2         27.9350    -2.9880   -23.7690 O.3    6380  TIP6230    -0.4105
 38051 H1          28.8040    -2.8680   -24.1520 H      6380  TIP6230     0.2052
 38052 H2          27.3570    -2.4550   -24.3150 H      6380  TIP6230     0.2052
 38053 OH2        -23.8510    -0.2520   -15.2080 O.3    6381  TIP6231    -0.4105
 38054 H1         -23.1190     0.3540   -15.3300 H      6381  TIP6231     0.2052
 38055 H2         -23.4380    -1.1110   -15.1160 H      6381  TIP6231     0.2052
 38056 OH2         30.3630   -16.1370   -27.8110 O.3    6382  TIP6232    -0.4105
 38057 H1          29.6160   -16.3630   -28.3670 H      6382  TIP6232     0.2052
 38058 H2          30.9050   -16.9260   -27.8050 H      6382  TIP6232     0.2052
 38059 OH2         10.5450    26.6210   -19.7670 O.3    6383  TIP6233    -0.4105
 38060 H1          10.3480    27.5470   -19.6250 H      6383  TIP6233     0.2052
 38061 H2           9.7320    26.1670   -19.5450 H      6383  TIP6233     0.2052
 38062 OH2          7.8830    -0.6100    42.0030 O.3    6384  TIP6234    -0.4105
 38063 H1           8.3180     0.0720    41.4920 H      6384  TIP6234     0.2052
 38064 H2           7.5860    -0.1640    42.7960 H      6384  TIP6234     0.2052
 38065 OH2        -17.2350     7.9370   -44.4960 O.3    6385  TIP6235    -0.4105
 38066 H1         -16.9240     8.0460   -43.5970 H      6385  TIP6235     0.2052
 38067 H2         -16.4390     7.8060   -45.0110 H      6385  TIP6235     0.2052
 38068 OH2          8.6430    -6.4180   -40.4180 O.3    6386  TIP6236    -0.4105
 38069 H1           9.4100    -6.0160   -40.0100 H      6386  TIP6236     0.2052
 38070 H2           8.0560    -6.6110   -39.6870 H      6386  TIP6236     0.2052
 38071 OH2          2.7110     5.6120   -46.8170 O.3    6387  TIP6237    -0.4105
 38072 H1           2.1370     6.0980   -47.4080 H      6387  TIP6237     0.2052
 38073 H2           3.5870     5.9500   -47.0020 H      6387  TIP6237     0.2052
 38074 OH2         12.0980    25.2640    44.0630 O.3    6388  TIP6238    -0.4105
 38075 H1          11.2330    25.4220    44.4420 H      6388  TIP6238     0.2052
 38076 H2          12.6010    26.0490    44.2790 H      6388  TIP6238     0.2052
 38077 OH2        -23.2480    30.2760    38.5560 O.3    6389  TIP6239    -0.4105
 38078 H1         -23.0020    30.4960    37.6570 H      6389  TIP6239     0.2052
 38079 H2         -22.4540    29.9010    38.9370 H      6389  TIP6239     0.2052
 38080 OH2         30.5020     6.6890    24.6860 O.3    6390  TIP6240    -0.4105
 38081 H1          30.2940     6.1860    23.9000 H      6390  TIP6240     0.2052
 38082 H2          30.2160     7.5800    24.4840 H      6390  TIP6240     0.2052
 38083 OH2         16.5330   -15.9250    17.1910 O.3    6391  TIP6241    -0.4105
 38084 H1          17.2870   -15.4740    17.5700 H      6391  TIP6241     0.2052
 38085 H2          15.8630   -15.2460    17.1100 H      6391  TIP6241     0.2052
 38086 OH2         22.7210     0.5940   -54.6670 O.3    6392  TIP6242    -0.4105
 38087 H1          22.1780    -0.1930   -54.6340 H      6392  TIP6242     0.2052
 38088 H2          22.2100     1.2170   -55.1840 H      6392  TIP6242     0.2052
 38089 OH2         -0.3530   -32.3560   -33.3280 O.3    6393  TIP6243    -0.4105
 38090 H1          -1.1640   -32.3170   -32.8190 H      6393  TIP6243     0.2052
 38091 H2          -0.3480   -33.2360   -33.7040 H      6393  TIP6243     0.2052
 38092 OH2         16.5340    31.5040    28.3200 O.3    6394  TIP6244    -0.4105
 38093 H1          15.9090    32.1840    28.5710 H      6394  TIP6244     0.2052
 38094 H2          17.0850    31.3870    29.0940 H      6394  TIP6244     0.2052
 38095 OH2        -31.5470   -14.6260    28.9060 O.3    6395  TIP6245    -0.4105
 38096 H1         -31.0450   -14.8150    28.1130 H      6395  TIP6245     0.2052
 38097 H2         -32.4180   -14.9800    28.7280 H      6395  TIP6245     0.2052
 38098 OH2         -4.4470   -26.7810    46.5800 O.3    6396  TIP6246    -0.4105
 38099 H1          -4.1160   -26.6270    47.4650 H      6396  TIP6246     0.2052
 38100 H2          -3.7270   -27.2200    46.1270 H      6396  TIP6246     0.2052
 38101 OH2        -15.4140    18.0650    18.6750 O.3    6397  TIP6247    -0.4105
 38102 H1         -16.1270    17.6630    19.1700 H      6397  TIP6247     0.2052
 38103 H2         -15.8500    18.5450    17.9710 H      6397  TIP6247     0.2052
 38104 OH2        -14.2620    12.8020   -43.7660 O.3    6398  TIP6248    -0.4105
 38105 H1         -14.2530    11.9510   -43.3280 H      6398  TIP6248     0.2052
 38106 H2         -14.5800    12.6140   -44.6490 H      6398  TIP6248     0.2052
 38107 OH2         30.5430   -22.2120   -44.2940 O.3    6399  TIP6249    -0.4105
 38108 H1          30.1360   -22.4590   -45.1250 H      6399  TIP6249     0.2052
 38109 H2          30.8420   -21.3130   -44.4310 H      6399  TIP6249     0.2052
 38110 OH2        -28.8910   -22.3950   -35.4430 O.3    6400  TIP6250    -0.4105
 38111 H1         -28.5870   -22.6910   -36.3010 H      6400  TIP6250     0.2052
 38112 H2         -29.5770   -23.0180   -35.2040 H      6400  TIP6250     0.2052
 38113 OH2         -1.8340    -7.1700    45.8010 O.3    6401  TIP6251    -0.4105
 38114 H1          -1.5720    -8.0770    45.6400 H      6401  TIP6251     0.2052
 38115 H2          -2.3680    -7.2130    46.5950 H      6401  TIP6251     0.2052
 38116 OH2        -15.6930    -9.6600   -19.6170 O.3    6402  TIP6252    -0.4105
 38117 H1         -16.6360    -9.5910   -19.4700 H      6402  TIP6252     0.2052
 38118 H2         -15.5950    -9.6250   -20.5680 H      6402  TIP6252     0.2052
 38119 OH2         12.1060     6.2290    48.1940 O.3    6403  TIP6253    -0.4105
 38120 H1          12.9060     6.6640    47.8990 H      6403  TIP6253     0.2052
 38121 H2          11.4360     6.5120    47.5720 H      6403  TIP6253     0.2052
 38122 OH2        -12.7730    23.6690    26.8090 O.3    6404  TIP6254    -0.4105
 38123 H1         -12.1290    23.2960    27.4110 H      6404  TIP6254     0.2052
 38124 H2         -12.3260    24.4170    26.4130 H      6404  TIP6254     0.2052
 38125 OH2         16.4080    -5.0960   -34.0200 O.3    6405  TIP6255    -0.4105
 38126 H1          15.6910    -4.5670   -33.6690 H      6405  TIP6255     0.2052
 38127 H2          15.9770    -5.8570   -34.4090 H      6405  TIP6255     0.2052
 38128 OH2        -13.7430   -10.2160   -34.1130 O.3    6406  TIP6256    -0.4105
 38129 H1         -13.4200   -11.0760   -33.8420 H      6406  TIP6256     0.2052
 38130 H2         -14.5330   -10.0810   -33.5890 H      6406  TIP6256     0.2052
 38131 OH2          3.0760     6.3000   -49.7830 O.3    6407  TIP6257    -0.4105
 38132 H1           3.8220     6.0290   -50.3190 H      6407  TIP6257     0.2052
 38133 H2           3.4660     6.8010   -49.0660 H      6407  TIP6257     0.2052
 38134 OH2         -7.6270   -28.0140    52.9060 O.3    6408  TIP6258    -0.4105
 38135 H1          -7.0570   -28.3360    53.6040 H      6408  TIP6258     0.2052
 38136 H2          -7.6080   -28.7040    52.2430 H      6408  TIP6258     0.2052
 38137 OH2        -15.5160    22.4500   -32.7880 O.3    6409  TIP6259    -0.4105
 38138 H1         -16.0230    21.7310   -33.1670 H      6409  TIP6259     0.2052
 38139 H2         -15.9880    23.2400   -33.0520 H      6409  TIP6259     0.2052
 38140 OH2         17.8370   -13.1290    50.8070 O.3    6410  TIP6260    -0.4105
 38141 H1          17.5770   -13.0590    51.7250 H      6410  TIP6260     0.2052
 38142 H2          18.5820   -13.7310    50.8140 H      6410  TIP6260     0.2052
 38143 OH2        -30.3860   -12.3290    29.7180 O.3    6411  TIP6261    -0.4105
 38144 H1         -30.9120   -13.0430    29.3570 H      6411  TIP6261     0.2052
 38145 H2         -30.3050   -12.5380    30.6490 H      6411  TIP6261     0.2052
 38146 OH2         13.5170   -10.8550   -42.0200 O.3    6412  TIP6262    -0.4105
 38147 H1          12.6980   -10.3910   -42.1920 H      6412  TIP6262     0.2052
 38148 H2          13.3320   -11.3930   -41.2510 H      6412  TIP6262     0.2052
 38149 OH2        -13.9800    28.2680    55.2230 O.3    6413  TIP6263    -0.4105
 38150 H1         -13.2760    28.5690    54.6490 H      6413  TIP6263     0.2052
 38151 H2         -13.8130    28.7050    56.0580 H      6413  TIP6263     0.2052
 38152 OH2        -22.3780   -20.6660   -38.3940 O.3    6414  TIP6264    -0.4105
 38153 H1         -21.8460   -19.8730   -38.4570 H      6414  TIP6264     0.2052
 38154 H2         -22.8100   -20.7340   -39.2450 H      6414  TIP6264     0.2052
 38155 OH2        -17.5720   -32.1670   -40.3280 O.3    6415  TIP6265    -0.4105
 38156 H1         -16.7690   -31.6660   -40.1820 H      6415  TIP6265     0.2052
 38157 H2         -17.6830   -32.6810   -39.5280 H      6415  TIP6265     0.2052
 38158 OH2         -7.6380   -12.4060    39.5660 O.3    6416  TIP6266    -0.4105
 38159 H1          -7.5320   -12.7300    40.4610 H      6416  TIP6266     0.2052
 38160 H2          -7.7730   -11.4640    39.6670 H      6416  TIP6266     0.2052
 38161 OH2        -22.4110   -14.4440   -21.3640 O.3    6417  TIP6267    -0.4105
 38162 H1         -21.8400   -13.8870   -20.8350 H      6417  TIP6267     0.2052
 38163 H2         -22.3450   -15.3090   -20.9580 H      6417  TIP6267     0.2052
 38164 OH2          0.0920   -14.4530   -37.4270 O.3    6418  TIP6268    -0.4105
 38165 H1           0.4060   -14.6110   -38.3170 H      6418  TIP6268     0.2052
 38166 H2          -0.8530   -14.6020   -37.4760 H      6418  TIP6268     0.2052
 38167 OH2         27.9260     0.0620    49.3570 O.3    6419  TIP6269    -0.4105
 38168 H1          28.4880    -0.1930    50.0890 H      6419  TIP6269     0.2052
 38169 H2          28.3330    -0.3400    48.5900 H      6419  TIP6269     0.2052
 38170 OH2         28.6650   -32.2950    33.4520 O.3    6420  TIP6270    -0.4105
 38171 H1          27.7310   -32.0960    33.3890 H      6420  TIP6270     0.2052
 38172 H2          28.8450   -32.3090    34.3920 H      6420  TIP6270     0.2052
 38173 OH2        -28.5610     1.1660   -33.6470 O.3    6421  TIP6271    -0.4105
 38174 H1         -28.3230     1.6970   -34.4070 H      6421  TIP6271     0.2052
 38175 H2         -28.5080     1.7690   -32.9060 H      6421  TIP6271     0.2052
 38176 OH2         11.6320    23.2150    53.2360 O.3    6422  TIP6272    -0.4105
 38177 H1          12.0220    24.0200    53.5770 H      6422  TIP6272     0.2052
 38178 H2          12.3570    22.7600    52.8080 H      6422  TIP6272     0.2052
 38179 OH2          5.1410    30.2350    29.8650 O.3    6423  TIP6273    -0.4105
 38180 H1           5.0940    30.1720    30.8190 H      6423  TIP6273     0.2052
 38181 H2           5.2750    29.3340    29.5700 H      6423  TIP6273     0.2052
 38182 OH2        -17.7830    13.5270   -39.9310 O.3    6424  TIP6274    -0.4105
 38183 H1         -18.5150    13.3100   -39.3540 H      6424  TIP6274     0.2052
 38184 H2         -17.4280    14.3410   -39.5730 H      6424  TIP6274     0.2052
 38185 OH2        -11.2180     4.3440   -16.9170 O.3    6425  TIP6275    -0.4105
 38186 H1         -10.6470     3.7400   -17.3900 H      6425  TIP6275     0.2052
 38187 H2         -11.9000     4.5750   -17.5490 H      6425  TIP6275     0.2052
 38188 OH2         19.7060    -7.7930   -44.6050 O.3    6426  TIP6276    -0.4105
 38189 H1          19.1820    -8.2720   -45.2480 H      6426  TIP6276     0.2052
 38190 H2          19.7740    -8.3890   -43.8590 H      6426  TIP6276     0.2052
 38191 OH2         28.4820    -3.3230   -31.2100 O.3    6427  TIP6277    -0.4105
 38192 H1          27.9430    -4.0600   -31.4980 H      6427  TIP6277     0.2052
 38193 H2          29.3490    -3.5050   -31.5720 H      6427  TIP6277     0.2052
 38194 OH2        -13.5990    29.9910   -53.5260 O.3    6428  TIP6278    -0.4105
 38195 H1         -13.5200    30.8480   -53.9450 H      6428  TIP6278     0.2052
 38196 H2         -13.9440    30.1810   -52.6540 H      6428  TIP6278     0.2052
 38197 OH2         -8.7480   -18.1890   -28.3950 O.3    6429  TIP6279    -0.4105
 38198 H1          -9.6320   -18.0670   -28.0490 H      6429  TIP6279     0.2052
 38199 H2          -8.1940   -18.2560   -27.6170 H      6429  TIP6279     0.2052
 38200 OH2         13.3640    -1.2810   -48.7060 O.3    6430  TIP6280    -0.4105
 38201 H1          12.8250    -1.7160   -48.0450 H      6430  TIP6280     0.2052
 38202 H2          13.1330    -0.3550   -48.6340 H      6430  TIP6280     0.2052
 38203 OH2          0.8310     0.7110    34.9540 O.3    6431  TIP6281    -0.4105
 38204 H1           0.4270    -0.1430    35.1090 H      6431  TIP6281     0.2052
 38205 H2           1.7710     0.5530    35.0480 H      6431  TIP6281     0.2052
 38206 OH2         -4.6870   -18.4730    32.4630 O.3    6432  TIP6282    -0.4105
 38207 H1          -4.2300   -17.9190    33.0960 H      6432  TIP6282     0.2052
 38208 H2          -4.6230   -19.3560    32.8280 H      6432  TIP6282     0.2052
 38209 OH2          6.4100    -3.8980   -50.7720 O.3    6433  TIP6283    -0.4105
 38210 H1           6.2220    -2.9860   -50.9940 H      6433  TIP6283     0.2052
 38211 H2           7.2800    -4.0600   -51.1380 H      6433  TIP6283     0.2052
 38212 OH2        -13.5340    15.2770    30.6390 O.3    6434  TIP6284    -0.4105
 38213 H1         -14.1970    15.7300    30.1180 H      6434  TIP6284     0.2052
 38214 H2         -12.7160    15.7290    30.4320 H      6434  TIP6284     0.2052
 38215 OH2         28.8770    -3.3400    41.1870 O.3    6435  TIP6285    -0.4105
 38216 H1          28.5010    -2.4690    41.0570 H      6435  TIP6285     0.2052
 38217 H2          29.8230    -3.2030    41.1320 H      6435  TIP6285     0.2052
 38218 OH2         -2.8960    32.6250    54.5140 O.3    6436  TIP6286    -0.4105
 38219 H1          -3.7710    32.8920    54.7940 H      6436  TIP6286     0.2052
 38220 H2          -2.8450    31.6960    54.7380 H      6436  TIP6286     0.2052
 38221 OH2         30.2810    -3.4860    46.2310 O.3    6437  TIP6287    -0.4105
 38222 H1          30.3510    -3.6810    47.1650 H      6437  TIP6287     0.2052
 38223 H2          29.4710    -2.9810    46.1510 H      6437  TIP6287     0.2052
 38224 OH2          8.1740    -9.2420    46.9300 O.3    6438  TIP6288    -0.4105
 38225 H1           7.3440    -8.9810    47.3300 H      6438  TIP6288     0.2052
 38226 H2           8.0860   -10.1850    46.7890 H      6438  TIP6288     0.2052
 38227 OH2         13.0280    -9.8550    30.9800 O.3    6439  TIP6289    -0.4105
 38228 H1          13.1520    -9.7130    30.0410 H      6439  TIP6289     0.2052
 38229 H2          13.8610    -9.5970    31.3740 H      6439  TIP6289     0.2052
 38230 OH2         16.0900   -10.2540   -35.6820 O.3    6440  TIP6290    -0.4105
 38231 H1          16.0950    -9.5910   -36.3720 H      6440  TIP6290     0.2052
 38232 H2          16.3150   -11.0690   -36.1310 H      6440  TIP6290     0.2052
 38233 OH2         -4.8800    24.2860    45.1460 O.3    6441  TIP6291    -0.4105
 38234 H1          -4.3590    23.6830    45.6750 H      6441  TIP6291     0.2052
 38235 H2          -5.5840    23.7450    44.7880 H      6441  TIP6291     0.2052
 38236 OH2         -9.9200   -24.9310    25.4520 O.3    6442  TIP6292    -0.4105
 38237 H1          -9.8040   -25.1870    26.3670 H      6442  TIP6292     0.2052
 38238 H2         -10.6600   -24.3240    25.4640 H      6442  TIP6292     0.2052
 38239 OH2        -18.0350     7.7560    22.8780 O.3    6443  TIP6293    -0.4105
 38240 H1         -18.1970     7.0270    23.4770 H      6443  TIP6293     0.2052
 38241 H2         -18.0670     7.3620    22.0060 H      6443  TIP6293     0.2052
 38242 OH2        -31.8680    29.4710    52.5550 O.3    6444  TIP6294    -0.4105
 38243 H1         -32.6630    28.9370    52.5290 H      6444  TIP6294     0.2052
 38244 H2         -32.1840    30.3640    52.6950 H      6444  TIP6294     0.2052
 38245 OH2         26.5140     0.8530   -43.7640 O.3    6445  TIP6295    -0.4105
 38246 H1          27.4510     0.7040   -43.6380 H      6445  TIP6295     0.2052
 38247 H2          26.1050     0.0190   -43.5320 H      6445  TIP6295     0.2052
 38248 OH2         -3.8180    -3.2560    32.6100 O.3    6446  TIP6296    -0.4105
 38249 H1          -2.9100    -3.5470    32.5260 H      6446  TIP6296     0.2052
 38250 H2          -4.3270    -4.0660    32.6490 H      6446  TIP6296     0.2052
 38251 OH2        -25.9470   -12.9960    50.3120 O.3    6447  TIP6297    -0.4105
 38252 H1         -25.7420   -12.7240    49.4180 H      6447  TIP6297     0.2052
 38253 H2         -25.2170   -13.5620    50.5640 H      6447  TIP6297     0.2052
 38254 OH2        -28.1450   -32.9470    21.4670 O.3    6448  TIP6298    -0.4105
 38255 H1         -27.4530   -33.5960    21.3370 H      6448  TIP6298     0.2052
 38256 H2         -28.6430   -32.9600    20.6500 H      6448  TIP6298     0.2052
 38257 OH2        -16.6780    31.3620    28.3940 O.3    6449  TIP6299    -0.4105
 38258 H1         -16.0580    31.9780    28.0040 H      6449  TIP6299     0.2052
 38259 H2         -16.3760    30.5020    28.1030 H      6449  TIP6299     0.2052
 38260 OH2         -4.2580   -32.8380   -38.8470 O.3    6450  TIP6300    -0.4105
 38261 H1          -5.1010   -32.4860   -39.1350 H      6450  TIP6300     0.2052
 38262 H2          -4.4760   -33.6690   -38.4260 H      6450  TIP6300     0.2052
 38263 OH2         25.7970    27.4710    41.3700 O.3    6451  TIP6301    -0.4105
 38264 H1          25.7100    28.1530    40.7040 H      6451  TIP6301     0.2052
 38265 H2          25.4820    26.6750    40.9420 H      6451  TIP6301     0.2052
 38266 OH2          0.9190    19.1790   -43.6780 O.3    6452  TIP6302    -0.4105
 38267 H1           0.9690    19.1580   -42.7220 H      6452  TIP6302     0.2052
 38268 H2           0.0010    18.9950   -43.8750 H      6452  TIP6302     0.2052
 38269 OH2         25.7240    31.3740    26.4260 O.3    6453  TIP6303    -0.4105
 38270 H1          26.1750    31.4360    25.5840 H      6453  TIP6303     0.2052
 38271 H2          24.8750    31.7900    26.2760 H      6453  TIP6303     0.2052
 38272 OH2        -23.5420   -10.0670    36.1370 O.3    6454  TIP6304    -0.4105
 38273 H1         -23.0180   -10.6820    35.6250 H      6454  TIP6304     0.2052
 38274 H2         -24.4470   -10.2610    35.8930 H      6454  TIP6304     0.2052
 38275 OH2         20.0250   -17.2450   -20.0600 O.3    6455  TIP6305    -0.4105
 38276 H1          19.8660   -16.8080   -19.2230 H      6455  TIP6305     0.2052
 38277 H2          20.7810   -17.8090   -19.8980 H      6455  TIP6305     0.2052
 38278 OH2         -7.9520    20.2840    29.6410 O.3    6456  TIP6306    -0.4105
 38279 H1          -8.2880    20.6530    28.8250 H      6456  TIP6306     0.2052
 38280 H2          -8.6300    19.6700    29.9240 H      6456  TIP6306     0.2052
 38281 OH2         18.4410    13.2900    37.2410 O.3    6457  TIP6307    -0.4105
 38282 H1          19.2120    12.9770    37.7150 H      6457  TIP6307     0.2052
 38283 H2          17.7980    12.5880    37.3390 H      6457  TIP6307     0.2052
 38284 OH2        -29.0150     4.4490   -28.2330 O.3    6458  TIP6308    -0.4105
 38285 H1         -29.0590     5.3180   -28.6320 H      6458  TIP6308     0.2052
 38286 H2         -29.4620     3.8760   -28.8560 H      6458  TIP6308     0.2052
 38287 OH2          7.1320    -7.0100   -21.7450 O.3    6459  TIP6309    -0.4105
 38288 H1           7.8430    -7.3430   -21.1990 H      6459  TIP6309     0.2052
 38289 H2           7.0260    -6.0990   -21.4730 H      6459  TIP6309     0.2052
 38290 OH2        -27.7660   -18.6960    52.1820 O.3    6460  TIP6310    -0.4105
 38291 H1         -26.9050   -18.2820    52.2400 H      6460  TIP6310     0.2052
 38292 H2         -27.8570   -19.1770    53.0050 H      6460  TIP6310     0.2052
 38293 OH2         25.6570    -3.1060    31.6850 O.3    6461  TIP6311    -0.4105
 38294 H1          25.8960    -2.2260    31.9770 H      6461  TIP6311     0.2052
 38295 H2          26.4650    -3.6130    31.7680 H      6461  TIP6311     0.2052
 38296 OH2        -23.5340   -15.9660    35.8440 O.3    6462  TIP6312    -0.4105
 38297 H1         -24.2750   -15.9700    36.4500 H      6462  TIP6312     0.2052
 38298 H2         -22.9110   -15.3500    36.2320 H      6462  TIP6312     0.2052
 38299 OH2         -3.5620    20.9640   -25.4680 O.3    6463  TIP6313    -0.4105
 38300 H1          -3.1290    21.5450   -24.8430 H      6463  TIP6313     0.2052
 38301 H2          -3.9920    20.3040   -24.9240 H      6463  TIP6313     0.2052
 38302 OH2        -13.8420   -20.1240    48.4600 O.3    6464  TIP6314    -0.4105
 38303 H1         -13.3450   -19.8510    49.2320 H      6464  TIP6314     0.2052
 38304 H2         -14.0370   -21.0480    48.6140 H      6464  TIP6314     0.2052
 38305 OH2         12.3400   -31.2110    21.0440 O.3    6465  TIP6315    -0.4105
 38306 H1          12.5620   -30.7470    20.2370 H      6465  TIP6315     0.2052
 38307 H2          12.6970   -32.0900    20.9220 H      6465  TIP6315     0.2052
 38308 OH2          2.1070    16.5490   -29.1980 O.3    6466  TIP6316    -0.4105
 38309 H1           1.7450    16.0030   -28.5000 H      6466  TIP6316     0.2052
 38310 H2           1.3480    17.0050   -29.5630 H      6466  TIP6316     0.2052
 38311 OH2         -4.4090   -26.1040   -53.6420 O.3    6467  TIP6317    -0.4105
 38312 H1          -5.0540   -26.8110   -53.6590 H      6467  TIP6317     0.2052
 38313 H2          -3.6710   -26.4640   -53.1490 H      6467  TIP6317     0.2052
 38314 OH2        -32.3540     8.8180   -48.2200 O.3    6468  TIP6318    -0.4105
 38315 H1         -32.8360     8.3620   -48.9100 H      6468  TIP6318     0.2052
 38316 H2         -31.9290     8.1200   -47.7230 H      6468  TIP6318     0.2052
 38317 OH2        -30.1150    -0.8600   -34.5730 O.3    6469  TIP6319    -0.4105
 38318 H1         -29.6610    -1.6930   -34.4430 H      6469  TIP6319     0.2052
 38319 H2         -29.5640    -0.2150   -34.1280 H      6469  TIP6319     0.2052
 38320 OH2        -15.8910    16.3890   -41.0780 O.3    6470  TIP6320    -0.4105
 38321 H1         -15.5830    15.8520   -41.8070 H      6470  TIP6320     0.2052
 38322 H2         -16.0610    17.2470   -41.4660 H      6470  TIP6320     0.2052
 38323 OH2        -19.0470    -0.1010   -45.7710 O.3    6471  TIP6321    -0.4105
 38324 H1         -19.2600    -0.5250   -46.6020 H      6471  TIP6321     0.2052
 38325 H2         -19.8390     0.3840   -45.5390 H      6471  TIP6321     0.2052
 38326 OH2          3.9650    10.3740   -27.1340 O.3    6472  TIP6322    -0.4105
 38327 H1           3.8890     9.5650   -26.6280 H      6472  TIP6322     0.2052
 38328 H2           3.4490    11.0130   -26.6430 H      6472  TIP6322     0.2052
 38329 OH2         11.2880    -0.5900   -43.1690 O.3    6473  TIP6323    -0.4105
 38330 H1          10.5680     0.0400   -43.1990 H      6473  TIP6323     0.2052
 38331 H2          12.0240    -0.1320   -43.5760 H      6473  TIP6323     0.2052
 38332 OH2          1.5070    19.1080    31.4440 O.3    6474  TIP6324    -0.4105
 38333 H1           1.9290    19.2680    32.2880 H      6474  TIP6324     0.2052
 38334 H2           0.9560    18.3390    31.5930 H      6474  TIP6324     0.2052
 38335 OH2         -4.2820     4.3550   -46.4540 O.3    6475  TIP6325    -0.4105
 38336 H1          -3.5700     4.9190   -46.7570 H      6475  TIP6325     0.2052
 38337 H2          -4.6650     4.0010   -47.2570 H      6475  TIP6325     0.2052
 38338 OH2          8.3830    13.6740    27.8440 O.3    6476  TIP6326    -0.4105
 38339 H1           7.9780    12.9270    27.4020 H      6476  TIP6326     0.2052
 38340 H2           8.7420    14.2070    27.1340 H      6476  TIP6326     0.2052
 38341 OH2         19.4520   -17.7800   -46.9640 O.3    6477  TIP6327    -0.4105
 38342 H1          18.5260   -17.9720   -46.8110 H      6477  TIP6327     0.2052
 38343 H2          19.9090   -18.5770   -46.6970 H      6477  TIP6327     0.2052
 38344 OH2         28.8950    27.3490   -27.6930 O.3    6478  TIP6328    -0.4105
 38345 H1          29.5470    26.7170   -27.9980 H      6478  TIP6328     0.2052
 38346 H2          28.6090    27.0080   -26.8460 H      6478  TIP6328     0.2052
 38347 OH2         11.8360   -28.7370   -30.8810 O.3    6479  TIP6329    -0.4105
 38348 H1          12.5380   -28.1220   -30.6730 H      6479  TIP6329     0.2052
 38349 H2          11.9470   -29.4500   -30.2520 H      6479  TIP6329     0.2052
 38350 OH2          4.0140    31.3570    35.6230 O.3    6480  TIP6330    -0.4105
 38351 H1           3.6810    31.6500    36.4720 H      6480  TIP6330     0.2052
 38352 H2           3.9030    30.4060    35.6370 H      6480  TIP6330     0.2052
 38353 OH2        -20.4380    14.4920    25.5810 O.3    6481  TIP6331    -0.4105
 38354 H1         -19.7370    14.6980    26.1990 H      6481  TIP6331     0.2052
 38355 H2         -20.7280    13.6150    25.8310 H      6481  TIP6331     0.2052
 38356 OH2        -12.9870    -5.9790   -51.9510 O.3    6482  TIP6332    -0.4105
 38357 H1         -12.1330    -5.6810   -51.6400 H      6482  TIP6332     0.2052
 38358 H2         -12.8080    -6.3720   -52.8050 H      6482  TIP6332     0.2052
 38359 OH2          6.7710    30.1650    37.4090 O.3    6483  TIP6333    -0.4105
 38360 H1           6.9910    31.0540    37.1310 H      6483  TIP6333     0.2052
 38361 H2           7.5610    29.6550    37.2300 H      6483  TIP6333     0.2052
 38362 OH2        -22.7250   -11.2510   -42.3740 O.3    6484  TIP6334    -0.4105
 38363 H1         -22.2520   -10.4190   -42.3420 H      6484  TIP6334     0.2052
 38364 H2         -23.6490   -11.0010   -42.3820 H      6484  TIP6334     0.2052
 38365 OH2         18.8190   -25.2250   -55.1560 O.3    6485  TIP6335    -0.4105
 38366 H1          18.7970   -24.9450   -56.0710 H      6485  TIP6335     0.2052
 38367 H2          18.8830   -24.4100   -54.6580 H      6485  TIP6335     0.2052
 38368 OH2         28.2170     9.4680    25.7820 O.3    6486  TIP6336    -0.4105
 38369 H1          28.9270     9.3920    25.1450 H      6486  TIP6336     0.2052
 38370 H2          27.9030     8.5720    25.9000 H      6486  TIP6336     0.2052
 38371 OH2          8.3890    -9.8850    51.9710 O.3    6487  TIP6337    -0.4105
 38372 H1           9.1540    -9.6340    52.4880 H      6487  TIP6337     0.2052
 38373 H2           8.7110    -9.9290    51.0710 H      6487  TIP6337     0.2052
 38374 OH2         -6.1710    17.0940   -27.5990 O.3    6488  TIP6338    -0.4105
 38375 H1          -6.1800    16.1780   -27.8780 H      6488  TIP6338     0.2052
 38376 H2          -6.9350    17.4820   -28.0240 H      6488  TIP6338     0.2052
 38377 OH2        -32.1400    30.7080    55.5150 O.3    6489  TIP6339    -0.4105
 38378 H1         -32.3790    29.9820    54.9390 H      6489  TIP6339     0.2052
 38379 H2         -32.7190    31.4240    55.2520 H      6489  TIP6339     0.2052
 38380 OH2          9.8950   -27.6540   -38.7020 O.3    6490  TIP6340    -0.4105
 38381 H1          10.7640   -27.9990   -38.9050 H      6490  TIP6340     0.2052
 38382 H2           9.2920   -28.2250   -39.1800 H      6490  TIP6340     0.2052
 38383 OH2          8.4020   -18.6760   -18.3910 O.3    6491  TIP6341    -0.4105
 38384 H1           9.3400   -18.7920   -18.2400 H      6491  TIP6341     0.2052
 38385 H2           8.0630   -19.5650   -18.4900 H      6491  TIP6341     0.2052
 38386 OH2        -29.0960   -10.1890   -35.0870 O.3    6492  TIP6342    -0.4105
 38387 H1         -29.4560   -11.0520   -34.8840 H      6492  TIP6342     0.2052
 38388 H2         -29.6730    -9.8430   -35.7680 H      6492  TIP6342     0.2052
 38389 OH2          5.2370   -30.5730    25.3420 O.3    6493  TIP6343    -0.4105
 38390 H1           5.4930   -31.2870    24.7580 H      6493  TIP6343     0.2052
 38391 H2           4.3580   -30.3290    25.0510 H      6493  TIP6343     0.2052
 38392 OH2        -31.7940    30.6530    39.4810 O.3    6494  TIP6344    -0.4105
 38393 H1         -32.5620    30.9590    39.9640 H      6494  TIP6344     0.2052
 38394 H2         -31.8010    31.1640    38.6710 H      6494  TIP6344     0.2052
 38395 OH2         22.7290     2.1510    21.5880 O.3    6495  TIP6345    -0.4105
 38396 H1          22.4700     1.5150    20.9210 H      6495  TIP6345     0.2052
 38397 H2          21.9020     2.4620    21.9570 H      6495  TIP6345     0.2052
 38398 OH2         25.6290    -2.8280    45.9930 O.3    6496  TIP6346    -0.4105
 38399 H1          26.5580    -2.6020    45.9700 H      6496  TIP6346     0.2052
 38400 H2          25.6160    -3.7830    46.0590 H      6496  TIP6346     0.2052
 38401 OH2        -26.0550    18.1030    29.5710 O.3    6497  TIP6347    -0.4105
 38402 H1         -26.5480    17.7540    28.8280 H      6497  TIP6347     0.2052
 38403 H2         -25.3850    18.6590    29.1740 H      6497  TIP6347     0.2052
 38404 OH2        -12.0200   -24.6590   -44.8940 O.3    6498  TIP6348    -0.4105
 38405 H1         -12.4710   -24.9130   -45.6990 H      6498  TIP6348     0.2052
 38406 H2         -12.4610   -25.1550   -44.2050 H      6498  TIP6348     0.2052
 38407 OH2          4.6240    21.3600    31.1360 O.3    6499  TIP6349    -0.4105
 38408 H1           5.2970    21.7170    31.7150 H      6499  TIP6349     0.2052
 38409 H2           4.9940    20.5370    30.8170 H      6499  TIP6349     0.2052
 38410 OH2        -27.7640    -7.9030    49.3480 O.3    6500  TIP6350    -0.4105
 38411 H1         -27.9950    -7.9190    50.2770 H      6500  TIP6350     0.2052
 38412 H2         -26.8070    -7.9060    49.3380 H      6500  TIP6350     0.2052
 38413 OH2        -12.9740    12.3300    22.2070 O.3    6501  TIP6351    -0.4105
 38414 H1         -13.7130    12.6570    22.7200 H      6501  TIP6351     0.2052
 38415 H2         -13.1500    11.3950    22.1000 H      6501  TIP6351     0.2052
 38416 OH2         18.3330    -9.3370    24.0800 O.3    6502  TIP6352    -0.4105
 38417 H1          17.8250    -9.5650    23.3020 H      6502  TIP6352     0.2052
 38418 H2          17.6820    -9.2650    24.7790 H      6502  TIP6352     0.2052
 38419 OH2         -0.7430    25.0270   -43.2420 O.3    6503  TIP6353    -0.4105
 38420 H1          -1.3660    25.2040   -43.9470 H      6503  TIP6353     0.2052
 38421 H2          -0.2230    25.8280   -43.1740 H      6503  TIP6353     0.2052
 38422 OH2         27.9980     8.7130   -45.6850 O.3    6504  TIP6354    -0.4105
 38423 H1          28.1430     8.6360   -46.6280 H      6504  TIP6354     0.2052
 38424 H2          28.3500     7.9020   -45.3200 H      6504  TIP6354     0.2052
 38425 OH2         19.5690   -29.0110   -46.3770 O.3    6505  TIP6355    -0.4105
 38426 H1          19.8370   -28.7280   -47.2510 H      6505  TIP6355     0.2052
 38427 H2          20.2310   -28.6430   -45.7920 H      6505  TIP6355     0.2052
 38428 OH2         26.5060    -2.1170    28.6180 O.3    6506  TIP6356    -0.4105
 38429 H1          26.1180    -2.7600    29.2110 H      6506  TIP6356     0.2052
 38430 H2          26.5370    -2.5600    27.7700 H      6506  TIP6356     0.2052
 38431 OH2         18.5630    -7.2470    35.3870 O.3    6507  TIP6357    -0.4105
 38432 H1          18.1020    -6.6430    35.9680 H      6507  TIP6357     0.2052
 38433 H2          19.3700    -7.4610    35.8540 H      6507  TIP6357     0.2052
 38434 OH2        -24.1230   -31.8040    22.2730 O.3    6508  TIP6358    -0.4105
 38435 H1         -24.0330   -30.9060    21.9540 H      6508  TIP6358     0.2052
 38436 H2         -24.1800   -32.3360    21.4790 H      6508  TIP6358     0.2052
 38437 OH2         29.6080   -13.4740    28.5710 O.3    6509  TIP6359    -0.4105
 38438 H1          29.0810   -14.2380    28.3350 H      6509  TIP6359     0.2052
 38439 H2          29.5440   -12.8950    27.8110 H      6509  TIP6359     0.2052
 38440 OH2         -9.1580    -8.5330    42.3220 O.3    6510  TIP6360    -0.4105
 38441 H1          -9.6240    -7.7030    42.4240 H      6510  TIP6360     0.2052
 38442 H2          -8.7270    -8.6710    43.1660 H      6510  TIP6360     0.2052
 38443 OH2        -25.5410    -2.2850   -48.5900 O.3    6511  TIP6361    -0.4105
 38444 H1         -24.6100    -2.1510   -48.4150 H      6511  TIP6361     0.2052
 38445 H2         -25.6770    -1.9140   -49.4620 H      6511  TIP6361     0.2052
 38446 OH2         -5.3850   -17.4510   -43.8280 O.3    6512  TIP6362    -0.4105
 38447 H1          -4.5600   -17.6670   -43.3930 H      6512  TIP6362     0.2052
 38448 H2          -5.9340   -17.0850   -43.1350 H      6512  TIP6362     0.2052
 38449 OH2        -10.3400     4.1290    34.7130 O.3    6513  TIP6363    -0.4105
 38450 H1          -9.3990     4.2850    34.6260 H      6513  TIP6363     0.2052
 38451 H2         -10.5020     3.3450    34.1880 H      6513  TIP6363     0.2052
 38452 OH2         12.9870   -23.6240    44.6420 O.3    6514  TIP6364    -0.4105
 38453 H1          12.5800   -23.8820    43.8150 H      6514  TIP6364     0.2052
 38454 H2          13.8860   -23.9450    44.5770 H      6514  TIP6364     0.2052
 38455 OH2        -17.3140    -2.9710    29.6200 O.3    6515  TIP6365    -0.4105
 38456 H1         -17.8400    -3.3480    30.3250 H      6515  TIP6365     0.2052
 38457 H2         -16.8540    -2.2380    30.0290 H      6515  TIP6365     0.2052
 38458 OH2         19.7040   -19.1810    35.7190 O.3    6516  TIP6366    -0.4105
 38459 H1          19.6560   -19.9270    35.1210 H      6516  TIP6366     0.2052
 38460 H2          20.0280   -19.5520    36.5400 H      6516  TIP6366     0.2052
 38461 OH2        -23.5290    -1.7660    46.9920 O.3    6517  TIP6367    -0.4105
 38462 H1         -22.7310    -2.2810    47.1120 H      6517  TIP6367     0.2052
 38463 H2         -24.0510    -2.2720    46.3690 H      6517  TIP6367     0.2052
 38464 OH2        -19.7620    22.2040   -35.4750 O.3    6518  TIP6368    -0.4105
 38465 H1         -19.1940    21.8750   -34.7780 H      6518  TIP6368     0.2052
 38466 H2         -19.3290    21.9340   -36.2850 H      6518  TIP6368     0.2052
 38467 OH2         28.5240    27.1520   -53.5380 O.3    6519  TIP6369    -0.4105
 38468 H1          28.5180    26.5140   -54.2510 H      6519  TIP6369     0.2052
 38469 H2          28.1070    27.9300   -53.9090 H      6519  TIP6369     0.2052
 38470 OH2        -32.7950     1.1270    40.7040 O.3    6520  TIP6370    -0.4105
 38471 H1         -32.9280     0.6740    39.8720 H      6520  TIP6370     0.2052
 38472 H2         -33.1260     2.0120    40.5520 H      6520  TIP6370     0.2052
 38473 OH2         -4.3050     9.9590   -46.8390 O.3    6521  TIP6371    -0.4105
 38474 H1          -4.0720     9.8710   -45.9150 H      6521  TIP6371     0.2052
 38475 H2          -3.4760    10.1530   -47.2780 H      6521  TIP6371     0.2052
 38476 OH2         26.9900    26.7420   -43.4840 O.3    6522  TIP6372    -0.4105
 38477 H1          26.7330    26.5800   -44.3920 H      6522  TIP6372     0.2052
 38478 H2          27.9460    26.6900   -43.4920 H      6522  TIP6372     0.2052
 38479 OH2         10.7500   -17.0530   -29.5780 O.3    6523  TIP6373    -0.4105
 38480 H1          11.6710   -16.7960   -29.5400 H      6523  TIP6373     0.2052
 38481 H2          10.3850   -16.5330   -30.2950 H      6523  TIP6373     0.2052
 38482 OH2         -9.6840     8.1220   -41.7410 O.3    6524  TIP6374    -0.4105
 38483 H1         -10.1790     7.9700   -42.5460 H      6524  TIP6374     0.2052
 38484 H2          -8.7700     7.9890   -41.9930 H      6524  TIP6374     0.2052
 38485 OH2         14.6780   -31.0630   -41.1570 O.3    6525  TIP6375    -0.4105
 38486 H1          15.2240   -31.1170   -41.9410 H      6525  TIP6375     0.2052
 38487 H2          14.0480   -30.3690   -41.3510 H      6525  TIP6375     0.2052
 38488 OH2         -9.3810    13.4410   -16.7280 O.3    6526  TIP6376    -0.4105
 38489 H1          -9.2600    13.5610   -17.6700 H      6526  TIP6376     0.2052
 38490 H2          -9.8900    12.6340   -16.6530 H      6526  TIP6376     0.2052
 38491 OH2         32.9430   -23.9500   -51.2940 O.3    6527  TIP6377    -0.4105
 38492 H1          33.4670   -24.7200   -51.0750 H      6527  TIP6377     0.2052
 38493 H2          33.4970   -23.2060   -51.0570 H      6527  TIP6377     0.2052
 38494 OH2         23.1960     4.4600   -33.0700 O.3    6528  TIP6378    -0.4105
 38495 H1          23.9430     3.9180   -32.8170 H      6528  TIP6378     0.2052
 38496 H2          23.0960     5.0820   -32.3490 H      6528  TIP6378     0.2052
 38497 OH2         18.4010     1.8160   -54.5270 O.3    6529  TIP6379    -0.4105
 38498 H1          19.0890     1.9200   -55.1850 H      6529  TIP6379     0.2052
 38499 H2          18.0940     0.9170   -54.6400 H      6529  TIP6379     0.2052
 38500 OH2         32.2390    -5.7220    27.7430 O.3    6530  TIP6380    -0.4105
 38501 H1          31.7410    -5.0250    28.1710 H      6530  TIP6380     0.2052
 38502 H2          32.5360    -6.2810    28.4610 H      6530  TIP6380     0.2052
 38503 OH2        -16.6420    -2.8700    53.0190 O.3    6531  TIP6381    -0.4105
 38504 H1         -15.8280    -3.1580    53.4310 H      6531  TIP6381     0.2052
 38505 H2         -17.0200    -2.2490    53.6410 H      6531  TIP6381     0.2052
 38506 OH2         23.5900   -30.3630    53.3390 O.3    6532  TIP6382    -0.4105
 38507 H1          23.7250   -29.5130    52.9200 H      6532  TIP6382     0.2052
 38508 H2          23.2320   -30.1510    54.2020 H      6532  TIP6382     0.2052
 38509 OH2        -31.9120    21.9740   -42.7620 O.3    6533  TIP6383    -0.4105
 38510 H1         -32.4890    22.6070   -42.3350 H      6533  TIP6383     0.2052
 38511 H2         -31.2050    21.8300   -42.1330 H      6533  TIP6383     0.2052
 38512 OH2         11.6620    -5.2620   -15.3460 O.3    6534  TIP6384    -0.4105
 38513 H1          11.2960    -4.8440   -14.5660 H      6534  TIP6384     0.2052
 38514 H2          11.0710    -5.9940   -15.5240 H      6534  TIP6384     0.2052
 38515 OH2        -22.1180     0.8230   -46.5030 O.3    6535  TIP6385    -0.4105
 38516 H1         -22.2410     0.5400   -47.4090 H      6535  TIP6385     0.2052
 38517 H2         -22.3940     0.0730   -45.9770 H      6535  TIP6385     0.2052
 38518 OH2         26.3080    15.4330   -44.9910 O.3    6536  TIP6386    -0.4105
 38519 H1          26.4460    15.8630   -44.1470 H      6536  TIP6386     0.2052
 38520 H2          25.4160    15.6740   -45.2390 H      6536  TIP6386     0.2052
 38521 OH2         23.3130    -5.0880   -37.4770 O.3    6537  TIP6387    -0.4105
 38522 H1          23.3710    -4.1640   -37.7200 H      6537  TIP6387     0.2052
 38523 H2          23.6450    -5.1220   -36.5800 H      6537  TIP6387     0.2052
 38524 OH2          5.9020    31.8590   -35.6250 O.3    6538  TIP6388    -0.4105
 38525 H1           5.7930    32.3330   -34.8000 H      6538  TIP6388     0.2052
 38526 H2           5.9950    32.5460   -36.2850 H      6538  TIP6388     0.2052
 38527 OH2          1.7150    27.6980   -47.1060 O.3    6539  TIP6389    -0.4105
 38528 H1           2.1600    27.6000   -47.9480 H      6539  TIP6389     0.2052
 38529 H2           1.0870    26.9760   -47.0800 H      6539  TIP6389     0.2052
 38530 OH2         25.5470    18.3280    45.8460 O.3    6540  TIP6390    -0.4105
 38531 H1          24.6040    18.2060    45.7350 H      6540  TIP6390     0.2052
 38532 H2          25.6350    19.2200    46.1810 H      6540  TIP6390     0.2052
 38533 OH2         -5.8470    17.9950   -43.8800 O.3    6541  TIP6391    -0.4105
 38534 H1          -6.3000    17.6400   -43.1150 H      6541  TIP6391     0.2052
 38535 H2          -6.5500    18.2580   -44.4740 H      6541  TIP6391     0.2052
 38536 OH2        -27.7210    11.5510    55.3660 O.3    6542  TIP6392    -0.4105
 38537 H1         -27.4980    10.6750    55.0500 H      6542  TIP6392     0.2052
 38538 H2         -27.6790    11.4790    56.3200 H      6542  TIP6392     0.2052
 38539 OH2         10.7290    -3.2630   -54.6340 O.3    6543  TIP6393    -0.4105
 38540 H1          11.5720    -3.6880   -54.4800 H      6543  TIP6393     0.2052
 38541 H2          10.1390    -3.9790   -54.8710 H      6543  TIP6393     0.2052
 38542 OH2        -26.7970    31.7260   -33.4870 O.3    6544  TIP6394    -0.4105
 38543 H1         -27.1690    32.3990   -34.0570 H      6544  TIP6394     0.2052
 38544 H2         -27.1480    31.9250   -32.6190 H      6544  TIP6394     0.2052
 38545 OH2         12.4460    27.9390   -42.3670 O.3    6545  TIP6395    -0.4105
 38546 H1          11.6400    27.9840   -41.8530 H      6545  TIP6395     0.2052
 38547 H2          12.2290    28.3750   -43.1910 H      6545  TIP6395     0.2052
 38548 OH2         27.8730     5.6680   -34.1290 O.3    6546  TIP6396    -0.4105
 38549 H1          28.6020     5.2350   -33.6850 H      6546  TIP6396     0.2052
 38550 H2          27.7500     5.1670   -34.9340 H      6546  TIP6396     0.2052
 38551 OH2        -27.6170    25.0300    21.3030 O.3    6547  TIP6397    -0.4105
 38552 H1         -28.3480    24.5130    20.9640 H      6547  TIP6397     0.2052
 38553 H2         -27.5520    25.7730    20.7030 H      6547  TIP6397     0.2052
 38554 OH2        -31.4920    10.9780    49.1460 O.3    6548  TIP6398    -0.4105
 38555 H1         -30.7210    11.2830    49.6250 H      6548  TIP6398     0.2052
 38556 H2         -32.2260    11.4340    49.5590 H      6548  TIP6398     0.2052
 38557 OH2         13.2380    29.2540    39.9040 O.3    6549  TIP6399    -0.4105
 38558 H1          13.9940    29.5040    40.4350 H      6549  TIP6399     0.2052
 38559 H2          12.8030    28.5700    40.4130 H      6549  TIP6399     0.2052
 38560 OH2         26.3130    -0.5600   -50.6800 O.3    6550  TIP6400    -0.4105
 38561 H1          25.5110    -0.2220   -50.2830 H      6550  TIP6400     0.2052
 38562 H2          26.9840    -0.4350   -50.0090 H      6550  TIP6400     0.2052
 38563 OH2          7.6410    -6.9820   -32.0580 O.3    6551  TIP6401    -0.4105
 38564 H1           6.8100    -6.7260   -31.6580 H      6551  TIP6401     0.2052
 38565 H2           7.8730    -6.2440   -32.6220 H      6551  TIP6401     0.2052
 38566 OH2        -13.1810   -18.5490    46.1970 O.3    6552  TIP6402    -0.4105
 38567 H1         -12.3170   -18.1800    46.3800 H      6552  TIP6402     0.2052
 38568 H2         -13.2260   -19.3360    46.7410 H      6552  TIP6402     0.2052
 38569 OH2         -7.7550    21.9980    36.0170 O.3    6553  TIP6403    -0.4105
 38570 H1          -8.2090    21.7080    36.8080 H      6553  TIP6403     0.2052
 38571 H2          -7.5940    21.1940    35.5240 H      6553  TIP6403     0.2052
 38572 OH2          0.1880     6.1850   -20.7050 O.3    6554  TIP6404    -0.4105
 38573 H1           0.7180     5.6970   -20.0750 H      6554  TIP6404     0.2052
 38574 H2          -0.7030     6.1320   -20.3600 H      6554  TIP6404     0.2052
 38575 OH2        -25.9850   -14.1990   -21.9290 O.3    6555  TIP6405    -0.4105
 38576 H1         -26.9270   -14.2500   -22.0930 H      6555  TIP6405     0.2052
 38577 H2         -25.8780   -14.5250   -21.0360 H      6555  TIP6405     0.2052
 38578 OH2          5.0970    -1.2740   -46.0140 O.3    6556  TIP6406    -0.4105
 38579 H1           5.8330    -1.3380   -46.6220 H      6556  TIP6406     0.2052
 38580 H2           5.4070    -0.6910   -45.3210 H      6556  TIP6406     0.2052
 38581 OH2        -18.2160    15.5350   -42.3950 O.3    6557  TIP6407    -0.4105
 38582 H1         -17.6060    16.2220   -42.6660 H      6557  TIP6407     0.2052
 38583 H2         -17.9830    15.3550   -41.4840 H      6557  TIP6407     0.2052
 38584 OH2         22.0420    10.3390   -54.7220 O.3    6558  TIP6408    -0.4105
 38585 H1          22.3700     9.6080   -54.1970 H      6558  TIP6408     0.2052
 38586 H2          21.6410    10.9300   -54.0850 H      6558  TIP6408     0.2052
 38587 OH2        -17.9260     6.6140    40.8060 O.3    6559  TIP6409    -0.4105
 38588 H1         -17.2560     5.9760    40.5600 H      6559  TIP6409     0.2052
 38589 H2         -17.4330     7.3920    41.0660 H      6559  TIP6409     0.2052
 38590 OH2          1.7820    20.7240    26.8360 O.3    6560  TIP6410    -0.4105
 38591 H1           1.2460    19.9600    26.6230 H      6560  TIP6410     0.2052
 38592 H2           1.7630    20.7710    27.7920 H      6560  TIP6410     0.2052
 38593 OH2         18.5100   -24.5750    45.5190 O.3    6561  TIP6411    -0.4105
 38594 H1          18.7570   -25.4850    45.6800 H      6561  TIP6411     0.2052
 38595 H2          17.7630   -24.6290    44.9230 H      6561  TIP6411     0.2052
 38596 OH2        -27.2280    -6.4990   -45.6600 O.3    6562  TIP6412    -0.4105
 38597 H1         -26.6910    -7.2680   -45.8530 H      6562  TIP6412     0.2052
 38598 H2         -26.7520    -5.7690   -46.0560 H      6562  TIP6412     0.2052
 38599 OH2        -15.6110    20.3170    43.0730 O.3    6563  TIP6413    -0.4105
 38600 H1         -15.2910    20.3040    42.1710 H      6563  TIP6413     0.2052
 38601 H2         -16.3180    20.9620    43.0680 H      6563  TIP6413     0.2052
 38602 OH2          1.1730     4.7910   -18.3110 O.3    6564  TIP6414    -0.4105
 38603 H1           0.9060     3.9420   -17.9590 H      6564  TIP6414     0.2052
 38604 H2           0.5250     5.4070   -17.9690 H      6564  TIP6414     0.2052
 38605 OH2         -4.5110     7.5110    49.0770 O.3    6565  TIP6415    -0.4105
 38606 H1          -5.2920     7.4500    49.6270 H      6565  TIP6415     0.2052
 38607 H2          -3.7950     7.2280    49.6460 H      6565  TIP6415     0.2052
 38608 OH2        -25.2060   -25.2600   -48.7800 O.3    6566  TIP6416    -0.4105
 38609 H1         -24.5370   -24.8480   -49.3270 H      6566  TIP6416     0.2052
 38610 H2         -26.0350   -25.0260   -49.1980 H      6566  TIP6416     0.2052
 38611 OH2         18.1250   -14.2840    46.9620 O.3    6567  TIP6417    -0.4105
 38612 H1          17.4540   -14.9060    47.2440 H      6567  TIP6417     0.2052
 38613 H2          17.6340   -13.5000    46.7130 H      6567  TIP6417     0.2052
 38614 OH2         -7.1520    18.9770   -47.8830 O.3    6568  TIP6418    -0.4105
 38615 H1          -7.4850    19.2220   -47.0190 H      6568  TIP6418     0.2052
 38616 H2          -7.1190    18.0200   -47.8640 H      6568  TIP6418     0.2052
 38617 OH2        -17.4320   -21.0990   -49.4460 O.3    6569  TIP6419    -0.4105
 38618 H1         -17.5880   -20.8460   -48.5360 H      6569  TIP6419     0.2052
 38619 H2         -18.2180   -20.8150   -49.9120 H      6569  TIP6419     0.2052
 38620 OH2         -1.9540   -16.2290    52.9230 O.3    6570  TIP6420    -0.4105
 38621 H1          -2.1640   -15.5590    52.2720 H      6570  TIP6420     0.2052
 38622 H2          -2.7380   -16.2870    53.4690 H      6570  TIP6420     0.2052
 38623 OH2        -26.6320     4.4180   -26.9510 O.3    6571  TIP6421    -0.4105
 38624 H1         -27.4340     4.3780   -27.4720 H      6571  TIP6421     0.2052
 38625 H2         -25.9420     4.6140   -27.5860 H      6571  TIP6421     0.2052
 38626 OH2         18.4380    26.8910   -31.3130 O.3    6572  TIP6422    -0.4105
 38627 H1          18.7000    26.0110   -31.5830 H      6572  TIP6422     0.2052
 38628 H2          18.3680    26.8380   -30.3590 H      6572  TIP6422     0.2052
 38629 OH2         11.6530   -11.5560    26.3470 O.3    6573  TIP6423    -0.4105
 38630 H1          11.9700   -11.5440    25.4440 H      6573  TIP6423     0.2052
 38631 H2          12.2680   -12.1240    26.8110 H      6573  TIP6423     0.2052
 38632 OH2          0.3600    -2.0380    34.9770 O.3    6574  TIP6424    -0.4105
 38633 H1          -0.5020    -1.9520    34.5690 H      6574  TIP6424     0.2052
 38634 H2           0.3690    -2.9270    35.3320 H      6574  TIP6424     0.2052
 38635 OH2         14.4310    12.8700   -27.7590 O.3    6575  TIP6425    -0.4105
 38636 H1          13.6080    13.0190   -28.2240 H      6575  TIP6425     0.2052
 38637 H2          14.8590    12.1660   -28.2470 H      6575  TIP6425     0.2052
 38638 OH2         19.1120    -4.4950   -26.4780 O.3    6576  TIP6426    -0.4105
 38639 H1          19.9480    -4.9270   -26.3050 H      6576  TIP6426     0.2052
 38640 H2          19.3180    -3.8270   -27.1320 H      6576  TIP6426     0.2052
 38641 OH2         21.7470    21.1360    41.8870 O.3    6577  TIP6427    -0.4105
 38642 H1          21.2320    20.5760    41.3070 H      6577  TIP6427     0.2052
 38643 H2          21.9320    21.9170    41.3640 H      6577  TIP6427     0.2052
 38644 OH2         25.9060    -0.8140   -34.0130 O.3    6578  TIP6428    -0.4105
 38645 H1          26.5120    -0.6130   -33.3000 H      6578  TIP6428     0.2052
 38646 H2          25.2040    -0.1700   -33.9210 H      6578  TIP6428     0.2052
 38647 OH2          8.0430     1.5670   -27.0190 O.3    6579  TIP6429    -0.4105
 38648 H1           7.8560     2.4990   -26.9030 H      6579  TIP6429     0.2052
 38649 H2           7.2580     1.1230   -26.6970 H      6579  TIP6429     0.2052
 38650 OH2          0.5660    12.4750   -44.1260 O.3    6580  TIP6430    -0.4105
 38651 H1           0.0760    12.9810   -44.7740 H      6580  TIP6430     0.2052
 38652 H2           1.4000    12.9370   -44.0420 H      6580  TIP6430     0.2052
 38653 OH2         -3.7400    -6.0260    40.5890 O.3    6581  TIP6431    -0.4105
 38654 H1          -2.9020    -6.4880    40.6270 H      6581  TIP6431     0.2052
 38655 H2          -4.2550    -6.4030    41.3020 H      6581  TIP6431     0.2052
 38656 OH2         21.0020     7.2230   -49.7010 O.3    6582  TIP6432    -0.4105
 38657 H1          21.6280     6.6010   -50.0740 H      6582  TIP6432     0.2052
 38658 H2          20.4680     6.6970   -49.1050 H      6582  TIP6432     0.2052
 38659 OH2         -1.7920    -4.5980   -22.1920 O.3    6583  TIP6433    -0.4105
 38660 H1          -2.0580    -5.1860   -22.8990 H      6583  TIP6433     0.2052
 38661 H2          -0.8590    -4.7730   -22.0720 H      6583  TIP6433     0.2052
 38662 OH2         26.4440    30.7990   -49.5270 O.3    6584  TIP6434    -0.4105
 38663 H1          26.5580    30.5800   -50.4520 H      6584  TIP6434     0.2052
 38664 H2          26.8130    30.0520   -49.0560 H      6584  TIP6434     0.2052
 38665 OH2         22.7170    21.1400    46.2140 O.3    6585  TIP6435    -0.4105
 38666 H1          22.3820    20.3490    46.6350 H      6585  TIP6435     0.2052
 38667 H2          23.0390    21.6790    46.9380 H      6585  TIP6435     0.2052
 38668 OH2         -2.7220   -26.3760   -30.0910 O.3    6586  TIP6436    -0.4105
 38669 H1          -2.9870   -25.4580   -30.0290 H      6586  TIP6436     0.2052
 38670 H2          -1.8270   -26.3910   -29.7520 H      6586  TIP6436     0.2052
 38671 OH2        -25.6240     6.1710    33.4920 O.3    6587  TIP6437    -0.4105
 38672 H1         -25.3700     7.0580    33.7460 H      6587  TIP6437     0.2052
 38673 H2         -25.8100     5.7280    34.3200 H      6587  TIP6437     0.2052
 38674 OH2        -11.9110    13.8600   -26.6350 O.3    6588  TIP6438    -0.4105
 38675 H1         -12.5530    13.5220   -26.0100 H      6588  TIP6438     0.2052
 38676 H2         -11.2800    13.1480   -26.7390 H      6588  TIP6438     0.2052
 38677 OH2         -7.6830   -12.4380    34.0820 O.3    6589  TIP6439    -0.4105
 38678 H1          -7.9190   -11.5870    34.4520 H      6589  TIP6439     0.2052
 38679 H2          -7.1530   -12.8560    34.7600 H      6589  TIP6439     0.2052
 38680 OH2         -8.0710    -1.3870    40.4210 O.3    6590  TIP6440    -0.4105
 38681 H1          -8.6160    -1.5470    39.6510 H      6590  TIP6440     0.2052
 38682 H2          -7.1750    -1.5280    40.1150 H      6590  TIP6440     0.2052
 38683 OH2          4.6150   -10.7760    52.4040 O.3    6591  TIP6441    -0.4105
 38684 H1           5.2600   -10.0680    52.3910 H      6591  TIP6441     0.2052
 38685 H2           5.1330   -11.5700    52.5330 H      6591  TIP6441     0.2052
 38686 OH2        -13.4760   -23.3970    35.3000 O.3    6592  TIP6442    -0.4105
 38687 H1         -13.0830   -23.6430    36.1370 H      6592  TIP6442     0.2052
 38688 H2         -13.7770   -22.4980    35.4300 H      6592  TIP6442     0.2052
 38689 OH2         -2.7620   -25.7600   -38.2330 O.3    6593  TIP6443    -0.4105
 38690 H1          -2.7710   -26.6020   -37.7770 H      6593  TIP6443     0.2052
 38691 H2          -2.6210   -25.1140   -37.5410 H      6593  TIP6443     0.2052
 38692 OH2         -1.6460   -24.7360    36.2560 O.3    6594  TIP6444    -0.4105
 38693 H1          -2.2890   -24.8840    36.9500 H      6594  TIP6444     0.2052
 38694 H2          -1.0670   -24.0590    36.6070 H      6594  TIP6444     0.2052
 38695 OH2        -16.1600   -10.0840    24.3210 O.3    6595  TIP6445    -0.4105
 38696 H1         -15.3500   -10.2880    23.8530 H      6595  TIP6445     0.2052
 38697 H2         -16.2830    -9.1440    24.1910 H      6595  TIP6445     0.2052
 38698 OH2          5.1440     4.5520    43.5840 O.3    6596  TIP6446    -0.4105
 38699 H1           4.5310     4.4230    42.8600 H      6596  TIP6446     0.2052
 38700 H2           6.0090     4.4600    43.1860 H      6596  TIP6446     0.2052
 38701 OH2         -7.4910    -6.1700   -23.2510 O.3    6597  TIP6447    -0.4105
 38702 H1          -7.9490    -6.6760   -23.9220 H      6597  TIP6447     0.2052
 38703 H2          -7.6490    -5.2560   -23.4890 H      6597  TIP6447     0.2052
 38704 OH2         30.8990   -24.9060   -38.7700 O.3    6598  TIP6448    -0.4105
 38705 H1          31.4580   -25.3000   -39.4400 H      6598  TIP6448     0.2052
 38706 H2          31.5050   -24.4370   -38.1970 H      6598  TIP6448     0.2052
 38707 OH2        -25.5680   -24.9520    32.5390 O.3    6599  TIP6449    -0.4105
 38708 H1         -25.9930   -24.0950    32.5560 H      6599  TIP6449     0.2052
 38709 H2         -25.8880   -25.3940    33.3250 H      6599  TIP6449     0.2052
 38710 OH2         -8.4070    31.5350    25.8230 O.3    6600  TIP6450    -0.4105
 38711 H1          -7.5340    31.8020    25.5360 H      6600  TIP6450     0.2052
 38712 H2          -8.4180    31.7190    26.7620 H      6600  TIP6450     0.2052
 38713 OH2         17.8790   -17.3740    27.3250 O.3    6601  TIP6451    -0.4105
 38714 H1          17.7150   -17.7660    26.4670 H      6601  TIP6451     0.2052
 38715 H2          17.0680   -17.5190    27.8140 H      6601  TIP6451     0.2052
 38716 OH2        -26.9290   -22.9620   -31.4160 O.3    6602  TIP6452    -0.4105
 38717 H1         -27.6270   -23.6160   -31.3800 H      6602  TIP6452     0.2052
 38718 H2         -26.1390   -23.4400   -31.1640 H      6602  TIP6452     0.2052
 38719 OH2        -12.3740   -10.3740   -22.2170 O.3    6603  TIP6453    -0.4105
 38720 H1         -11.9930   -10.0750   -21.3910 H      6603  TIP6453     0.2052
 38721 H2         -13.3090   -10.4590   -22.0330 H      6603  TIP6453     0.2052
 38722 OH2        -32.2540    19.8770    21.7150 O.3    6604  TIP6454    -0.4105
 38723 H1         -31.8060    19.8520    20.8690 H      6604  TIP6454     0.2052
 38724 H2         -33.0460    19.3560    21.5830 H      6604  TIP6454     0.2052
 38725 OH2         31.1920   -15.6420    34.0780 O.3    6605  TIP6455    -0.4105
 38726 H1          30.3570   -15.1930    34.2090 H      6605  TIP6455     0.2052
 38727 H2          31.7280   -15.3740    34.8240 H      6605  TIP6455     0.2052
 38728 OH2        -23.8030    15.7820    29.5120 O.3    6606  TIP6456    -0.4105
 38729 H1         -23.1670    16.3940    29.8820 H      6606  TIP6456     0.2052
 38730 H2         -23.9850    16.1250    28.6370 H      6606  TIP6456     0.2052
 38731 OH2         22.4500   -17.5920    49.4740 O.3    6607  TIP6457    -0.4105
 38732 H1          22.5390   -16.6660    49.7000 H      6607  TIP6457     0.2052
 38733 H2          22.4730   -18.0470    50.3160 H      6607  TIP6457     0.2052
 38734 OH2         -2.0530    17.3640   -27.9710 O.3    6608  TIP6458    -0.4105
 38735 H1          -1.3190    17.4310   -27.3610 H      6608  TIP6458     0.2052
 38736 H2          -1.9500    18.1180   -28.5530 H      6608  TIP6458     0.2052
 38737 OH2         22.9800     3.6210    50.4540 O.3    6609  TIP6459    -0.4105
 38738 H1          22.7950     2.7830    50.0280 H      6609  TIP6459     0.2052
 38739 H2          22.6430     4.2780    49.8450 H      6609  TIP6459     0.2052
 38740 OH2         27.1640    29.2040   -41.7590 O.3    6610  TIP6460    -0.4105
 38741 H1          26.2950    29.6040   -41.7420 H      6610  TIP6460     0.2052
 38742 H2          27.0240    28.3120   -41.4430 H      6610  TIP6460     0.2052
 38743 OH2         13.4340    23.4390   -47.4550 O.3    6611  TIP6461    -0.4105
 38744 H1          12.9550    23.9550   -46.8060 H      6611  TIP6461     0.2052
 38745 H2          12.9800    23.6080   -48.2800 H      6611  TIP6461     0.2052
 38746 OH2        -10.5830     2.1480   -19.9270 O.3    6612  TIP6462    -0.4105
 38747 H1         -10.0690     2.6310   -19.2810 H      6612  TIP6462     0.2052
 38748 H2         -11.4580     2.5340   -19.8760 H      6612  TIP6462     0.2052
 38749 OH2        -27.7100    19.0550   -48.6710 O.3    6613  TIP6463    -0.4105
 38750 H1         -28.4180    19.5810   -48.3000 H      6613  TIP6463     0.2052
 38751 H2         -27.1940    18.7770   -47.9140 H      6613  TIP6463     0.2052
 38752 OH2         25.7620    31.6170   -41.6720 O.3    6614  TIP6464    -0.4105
 38753 H1          25.3450    32.3990   -42.0320 H      6614  TIP6464     0.2052
 38754 H2          26.6820    31.6960   -41.9260 H      6614  TIP6464     0.2052
 38755 OH2          5.0610   -16.6200   -50.0780 O.3    6615  TIP6465    -0.4105
 38756 H1           5.3550   -16.3680   -49.2020 H      6615  TIP6465     0.2052
 38757 H2           5.8640   -16.6700   -50.5960 H      6615  TIP6465     0.2052
 38758 OH2        -12.9500   -23.7430    27.2260 O.3    6616  TIP6466    -0.4105
 38759 H1         -12.4160   -23.4910    27.9790 H      6616  TIP6466     0.2052
 38760 H2         -12.6840   -23.1420    26.5310 H      6616  TIP6466     0.2052
 38761 OH2        -15.5750   -12.2370    28.4890 O.3    6617  TIP6467    -0.4105
 38762 H1         -15.1400   -11.5960    27.9270 H      6617  TIP6467     0.2052
 38763 H2         -16.4840   -11.9390    28.5320 H      6617  TIP6467     0.2052
 38764 OH2          2.7080    15.8290    37.6930 O.3    6618  TIP6468    -0.4105
 38765 H1           3.2680    16.0700    36.9550 H      6618  TIP6468     0.2052
 38766 H2           3.0800    15.0100    38.0200 H      6618  TIP6468     0.2052
 38767 OH2         11.1630    12.5090   -37.7870 O.3    6619  TIP6469    -0.4105
 38768 H1          11.1130    11.5890   -38.0450 H      6619  TIP6469     0.2052
 38769 H2          11.7490    12.5160   -37.0310 H      6619  TIP6469     0.2052
 38770 OH2         12.4840    26.0660    33.4500 O.3    6620  TIP6470    -0.4105
 38771 H1          11.8240    25.4410    33.1510 H      6620  TIP6470     0.2052
 38772 H2          13.1750    25.5230    33.8290 H      6620  TIP6470     0.2052
 38773 OH2         -9.2430   -23.4270    54.4480 O.3    6621  TIP6471    -0.4105
 38774 H1          -9.6130   -23.3250    55.3250 H      6621  TIP6471     0.2052
 38775 H2          -9.4160   -24.3410    54.2200 H      6621  TIP6471     0.2052
 38776 OH2         -2.0940    15.3270    51.6860 O.3    6622  TIP6472    -0.4105
 38777 H1          -2.4330    14.4510    51.8690 H      6622  TIP6472     0.2052
 38778 H2          -2.1080    15.3960    50.7320 H      6622  TIP6472     0.2052
 38779 OH2        -19.8820     7.8940   -34.6590 O.3    6623  TIP6473    -0.4105
 38780 H1         -18.9350     7.9840   -34.5540 H      6623  TIP6473     0.2052
 38781 H2         -20.2520     8.5750   -34.0980 H      6623  TIP6473     0.2052
 38782 OH2        -32.9410   -19.9620    26.5670 O.3    6624  TIP6474    -0.4105
 38783 H1         -33.6110   -20.6410    26.4900 H      6624  TIP6474     0.2052
 38784 H2         -33.2520   -19.2530    26.0040 H      6624  TIP6474     0.2052
 38785 OH2         -3.5070     4.8080   -39.8150 O.3    6625  TIP6475    -0.4105
 38786 H1          -2.7140     5.1290   -40.2460 H      6625  TIP6475     0.2052
 38787 H2          -3.3480     3.8730   -39.6880 H      6625  TIP6475     0.2052
 38788 OH2        -18.8380    -5.5620   -41.5830 O.3    6626  TIP6476    -0.4105
 38789 H1         -18.0630    -6.1090   -41.4570 H      6626  TIP6476     0.2052
 38790 H2         -18.7300    -5.1900   -42.4590 H      6626  TIP6476     0.2052
 38791 OH2          2.5260    -2.0060   -32.3340 O.3    6627  TIP6477    -0.4105
 38792 H1           2.6130    -2.9590   -32.3680 H      6627  TIP6477     0.2052
 38793 H2           1.7070    -1.8570   -31.8620 H      6627  TIP6477     0.2052
 38794 OH2        -19.1770   -11.8270    18.3550 O.3    6628  TIP6478    -0.4105
 38795 H1         -18.8020   -11.4230    19.1370 H      6628  TIP6478     0.2052
 38796 H2         -20.1220   -11.8060    18.5030 H      6628  TIP6478     0.2052
 38797 OH2         22.8380    -9.9680    17.5710 O.3    6629  TIP6479    -0.4105
 38798 H1          22.7730   -10.9160    17.6900 H      6629  TIP6479     0.2052
 38799 H2          21.9320    -9.6590    17.6050 H      6629  TIP6479     0.2052
 38800 OH2        -30.3720    29.5250    36.7120 O.3    6630  TIP6480    -0.4105
 38801 H1         -31.1990    29.2000    36.3560 H      6630  TIP6480     0.2052
 38802 H2         -30.2330    30.3620    36.2680 H      6630  TIP6480     0.2052
 38803 OH2         23.9090     9.9070    44.1070 O.3    6631  TIP6481    -0.4105
 38804 H1          24.5540     9.8170    44.8080 H      6631  TIP6481     0.2052
 38805 H2          23.6290     9.0100    43.9230 H      6631  TIP6481     0.2052
 38806 OH2         -7.9750     3.2010    37.8560 O.3    6632  TIP6482    -0.4105
 38807 H1          -8.7300     3.4250    38.4000 H      6632  TIP6482     0.2052
 38808 H2          -8.2850     2.4880    37.2980 H      6632  TIP6482     0.2052
 38809 OH2         18.6820    24.2980   -45.4730 O.3    6633  TIP6483    -0.4105
 38810 H1          18.1310    23.5330   -45.3100 H      6633  TIP6483     0.2052
 38811 H2          19.4640    23.9440   -45.8970 H      6633  TIP6483     0.2052
 38812 OH2        -14.3270    18.7460   -31.6250 O.3    6634  TIP6484    -0.4105
 38813 H1         -14.8180    18.1280   -32.1660 H      6634  TIP6484     0.2052
 38814 H2         -14.9080    19.5020   -31.5360 H      6634  TIP6484     0.2052
 38815 OH2        -13.2430    18.7080    27.0490 O.3    6635  TIP6485    -0.4105
 38816 H1         -13.2080    18.9770    27.9670 H      6635  TIP6485     0.2052
 38817 H2         -13.1860    19.5280    26.5570 H      6635  TIP6485     0.2052
 38818 OH2        -28.8620    -7.4100   -40.5880 O.3    6636  TIP6486    -0.4105
 38819 H1         -29.1060    -6.7370   -41.2230 H      6636  TIP6486     0.2052
 38820 H2         -28.7580    -8.2060   -41.1090 H      6636  TIP6486     0.2052
 38821 OH2        -21.5460     3.2090   -49.4850 O.3    6637  TIP6487    -0.4105
 38822 H1         -21.0760     4.0240   -49.3060 H      6637  TIP6487     0.2052
 38823 H2         -21.4260     2.6840   -48.6940 H      6637  TIP6487     0.2052
 38824 OH2         11.0600    -7.4000    33.4260 O.3    6638  TIP6488    -0.4105
 38825 H1          11.6710    -7.1540    32.7310 H      6638  TIP6488     0.2052
 38826 H2          11.4820    -8.1390    33.8660 H      6638  TIP6488     0.2052
 38827 OH2        -30.1540    15.8700    26.7150 O.3    6639  TIP6489    -0.4105
 38828 H1         -30.0370    16.7950    26.5000 H      6639  TIP6489     0.2052
 38829 H2         -31.0010    15.8320    27.1590 H      6639  TIP6489     0.2052
 38830 OH2        -28.5370    -4.6860   -22.2100 O.3    6640  TIP6490    -0.4105
 38831 H1         -27.9710    -5.4570   -22.1990 H      6640  TIP6490     0.2052
 38832 H2         -29.0330    -4.7640   -23.0250 H      6640  TIP6490     0.2052
 38833 OH2         24.0990    20.9290    52.9030 O.3    6641  TIP6491    -0.4105
 38834 H1          24.0100    20.7460    53.8380 H      6641  TIP6491     0.2052
 38835 H2          24.9830    20.6340    52.6840 H      6641  TIP6491     0.2052
 38836 OH2        -15.9340    18.9590    33.9850 O.3    6642  TIP6492    -0.4105
 38837 H1         -15.2100    18.7650    33.3900 H      6642  TIP6492     0.2052
 38838 H2         -15.5270    19.4280    34.7140 H      6642  TIP6492     0.2052
 38839 OH2        -29.6450    -6.1730    27.6600 O.3    6643  TIP6493    -0.4105
 38840 H1         -30.0880    -5.5590    27.0750 H      6643  TIP6493     0.2052
 38841 H2         -29.4960    -6.9520    27.1240 H      6643  TIP6493     0.2052
 38842 OH2          8.7270     0.2450    31.4010 O.3    6644  TIP6494    -0.4105
 38843 H1           7.7830     0.0870    31.4320 H      6644  TIP6494     0.2052
 38844 H2           9.0960    -0.5710    31.0640 H      6644  TIP6494     0.2052
 38845 OH2         -0.2910   -13.1870    24.6860 O.3    6645  TIP6495    -0.4105
 38846 H1          -0.2140   -12.3490    24.2300 H      6645  TIP6495     0.2052
 38847 H2           0.6120   -13.4400    24.8760 H      6645  TIP6495     0.2052
 38848 OH2        -20.2290    10.0620   -33.1600 O.3    6646  TIP6496    -0.4105
 38849 H1         -20.1610    11.0010   -33.3300 H      6646  TIP6496     0.2052
 38850 H2         -20.8230     9.9950   -32.4130 H      6646  TIP6496     0.2052
 38851 OH2          4.6590    16.9880    33.0570 O.3    6647  TIP6497    -0.4105
 38852 H1           4.4110    17.9040    32.9370 H      6647  TIP6497     0.2052
 38853 H2           5.2750    16.8110    32.3450 H      6647  TIP6497     0.2052
 38854 OH2        -24.0370    27.6340   -27.3660 O.3    6648  TIP6498    -0.4105
 38855 H1         -23.8720    27.8840   -26.4570 H      6648  TIP6498     0.2052
 38856 H2         -24.7750    27.0270   -27.3180 H      6648  TIP6498     0.2052
 38857 OH2         12.6900    32.2210   -53.1850 O.3    6649  TIP6499    -0.4105
 38858 H1          13.1770    31.5240   -52.7450 H      6649  TIP6499     0.2052
 38859 H2          12.6960    32.9480   -52.5620 H      6649  TIP6499     0.2052
 38860 OH2        -14.1790     5.2890   -38.4690 O.3    6650  TIP6500    -0.4105
 38861 H1         -13.5570     4.5760   -38.3240 H      6650  TIP6500     0.2052
 38862 H2         -14.6090     5.0670   -39.2950 H      6650  TIP6500     0.2052
 38863 OH2         -4.2430   -31.4490    38.3880 O.3    6651  TIP6501    -0.4105
 38864 H1          -4.5810   -32.1660    37.8500 H      6651  TIP6501     0.2052
 38865 H2          -3.6590   -30.9660    37.8030 H      6651  TIP6501     0.2052
 38866 OH2         19.7370   -10.4220    44.5850 O.3    6652  TIP6502    -0.4105
 38867 H1          20.0460   -11.0870    45.1990 H      6652  TIP6502     0.2052
 38868 H2          18.8870   -10.1510    44.9310 H      6652  TIP6502     0.2052
 38869 OH2        -14.5290    25.8470   -29.8870 O.3    6653  TIP6503    -0.4105
 38870 H1         -14.8340    25.3030   -29.1600 H      6653  TIP6503     0.2052
 38871 H2         -14.3050    25.2220   -30.5760 H      6653  TIP6503     0.2052
 38872 OH2        -14.0260    20.3870   -39.0200 O.3    6654  TIP6504    -0.4105
 38873 H1         -13.6690    19.9730   -38.2340 H      6654  TIP6504     0.2052
 38874 H2         -14.5520    21.1150   -38.6900 H      6654  TIP6504     0.2052
 38875 OH2        -20.5970    -1.8310   -33.2410 O.3    6655  TIP6505    -0.4105
 38876 H1         -21.3060    -1.9490   -32.6090 H      6655  TIP6505     0.2052
 38877 H2         -19.8550    -2.3000   -32.8600 H      6655  TIP6505     0.2052
 38878 OH2         -7.7840   -26.8350    49.6850 O.3    6656  TIP6506    -0.4105
 38879 H1          -8.0740   -26.6140    48.7990 H      6656  TIP6506     0.2052
 38880 H2          -8.5520   -27.2320    50.0960 H      6656  TIP6506     0.2052
 38881 OH2          3.2650   -27.2690   -32.7750 O.3    6657  TIP6507    -0.4105
 38882 H1           2.3590   -26.9950   -32.9160 H      6657  TIP6507     0.2052
 38883 H2           3.4550   -27.8550   -33.5090 H      6657  TIP6507     0.2052
 38884 OH2         -9.3860   -32.5720    31.1450 O.3    6658  TIP6508    -0.4105
 38885 H1          -9.9180   -31.9350    30.6690 H      6658  TIP6508     0.2052
 38886 H2          -8.8590   -32.0450    31.7460 H      6658  TIP6508     0.2052
 38887 OH2         -3.1080   -18.6880    29.8580 O.3    6659  TIP6509    -0.4105
 38888 H1          -3.4560   -19.5440    30.1090 H      6659  TIP6509     0.2052
 38889 H2          -2.1640   -18.7630    29.9950 H      6659  TIP6509     0.2052
 38890 OH2         14.9410    24.9620    42.1750 O.3    6660  TIP6510    -0.4105
 38891 H1          15.2730    25.7760    42.5530 H      6660  TIP6510     0.2052
 38892 H2          14.7000    24.4270    42.9320 H      6660  TIP6510     0.2052
 38893 OH2         12.0260    13.7270    42.6560 O.3    6661  TIP6511    -0.4105
 38894 H1          12.3780    13.5720    43.5330 H      6661  TIP6511     0.2052
 38895 H2          11.0830    13.8180    42.7900 H      6661  TIP6511     0.2052
 38896 OH2         13.1390   -15.6780   -29.6760 O.3    6662  TIP6512    -0.4105
 38897 H1          13.0140   -15.1950   -30.4930 H      6662  TIP6512     0.2052
 38898 H2          13.5030   -15.0330   -29.0700 H      6662  TIP6512     0.2052
 38899 OH2        -10.6830    17.6350   -49.2850 O.3    6663  TIP6513    -0.4105
 38900 H1         -11.2910    17.4960   -48.5580 H      6663  TIP6513     0.2052
 38901 H2         -10.4590    18.5640   -49.2360 H      6663  TIP6513     0.2052
 38902 OH2          8.7300     5.4930    34.6050 O.3    6664  TIP6514    -0.4105
 38903 H1           8.7720     5.0700    33.7470 H      6664  TIP6514     0.2052
 38904 H2           8.0760     4.9900    35.0890 H      6664  TIP6514     0.2052
 38905 OH2        -31.4110    29.3760   -27.8150 O.3    6665  TIP6515    -0.4105
 38906 H1         -31.7350    29.5800   -26.9380 H      6665  TIP6515     0.2052
 38907 H2         -32.0190    28.7140   -28.1470 H      6665  TIP6515     0.2052
 38908 OH2         30.1450     5.3860    51.2040 O.3    6666  TIP6516    -0.4105
 38909 H1          29.3980     5.1850    50.6410 H      6666  TIP6516     0.2052
 38910 H2          30.4520     6.2400    50.9020 H      6666  TIP6516     0.2052
 38911 OH2         24.8760    26.0520   -23.9520 O.3    6667  TIP6517    -0.4105
 38912 H1          25.0820    25.3390   -24.5560 H      6667  TIP6517     0.2052
 38913 H2          25.4430    25.8980   -23.1960 H      6667  TIP6517     0.2052
 38914 OH2         -7.0510     7.4930   -37.1910 O.3    6668  TIP6518    -0.4105
 38915 H1          -6.6440     6.6410   -37.0330 H      6668  TIP6518     0.2052
 38916 H2          -7.8150     7.2970   -37.7340 H      6668  TIP6518     0.2052
 38917 OH2         13.7460   -18.4250   -30.1080 O.3    6669  TIP6519    -0.4105
 38918 H1          13.3980   -17.6680   -30.5790 H      6669  TIP6519     0.2052
 38919 H2          14.5460   -18.6560   -30.5800 H      6669  TIP6519     0.2052
 38920 OH2        -16.4760    29.1380    22.9710 O.3    6670  TIP6520    -0.4105
 38921 H1         -16.4190    28.6420    22.1540 H      6670  TIP6520     0.2052
 38922 H2         -16.4580    30.0550    22.6950 H      6670  TIP6520     0.2052
 38923 OH2         10.3880    29.0320    23.4650 O.3    6671  TIP6521    -0.4105
 38924 H1          11.0960    28.8710    22.8410 H      6671  TIP6521     0.2052
 38925 H2           9.6870    29.4170    22.9380 H      6671  TIP6521     0.2052
 38926 OH2          1.2780   -13.8150   -46.0250 O.3    6672  TIP6522    -0.4105
 38927 H1           1.5340   -13.0390   -46.5230 H      6672  TIP6522     0.2052
 38928 H2           2.1010   -14.1620   -45.6820 H      6672  TIP6522     0.2052
 38929 OH2        -25.0610    26.8170   -46.4770 O.3    6673  TIP6523    -0.4105
 38930 H1         -24.4360    27.3400   -46.9800 H      6673  TIP6523     0.2052
 38931 H2         -24.8760    25.9130   -46.7300 H      6673  TIP6523     0.2052
 38932 OH2        -30.1670   -19.1030    33.1490 O.3    6674  TIP6524    -0.4105
 38933 H1         -29.9940   -18.1690    33.0370 H      6674  TIP6524     0.2052
 38934 H2         -30.2640   -19.4380    32.2570 H      6674  TIP6524     0.2052
 38935 OH2        -31.5100    11.3070   -52.7420 O.3    6675  TIP6525    -0.4105
 38936 H1         -30.9290    12.0270   -52.9880 H      6675  TIP6525     0.2052
 38937 H2         -30.9280    10.6440   -52.3720 H      6675  TIP6525     0.2052
 38938 OH2         -7.9490   -15.3820   -39.9980 O.3    6676  TIP6526    -0.4105
 38939 H1          -8.5830   -14.9740   -39.4080 H      6676  TIP6526     0.2052
 38940 H2          -7.1420   -14.8850   -39.8630 H      6676  TIP6526     0.2052
 38941 OH2         -0.6110   -19.0610   -36.3730 O.3    6677  TIP6527    -0.4105
 38942 H1           0.1590   -18.5070   -36.5000 H      6677  TIP6527     0.2052
 38943 H2          -0.7220   -19.1020   -35.4230 H      6677  TIP6527     0.2052
 38944 OH2         31.1090    19.9770    48.7470 O.3    6678  TIP6528    -0.4105
 38945 H1          31.1040    19.0640    48.4600 H      6678  TIP6528     0.2052
 38946 H2          30.8760    20.4770    47.9640 H      6678  TIP6528     0.2052
 38947 OH2         15.9770   -26.1480    23.3440 O.3    6679  TIP6529    -0.4105
 38948 H1          16.5130   -25.3750    23.5230 H      6679  TIP6529     0.2052
 38949 H2          15.5370   -25.9490    22.5170 H      6679  TIP6529     0.2052
 38950 OH2         19.9830   -16.6930    18.5690 O.3    6680  TIP6530    -0.4105
 38951 H1          19.2910   -16.0340    18.6330 H      6680  TIP6530     0.2052
 38952 H2          20.0410   -16.8900    17.6350 H      6680  TIP6530     0.2052
 38953 OH2         -9.3810    10.3560    19.5580 O.3    6681  TIP6531    -0.4105
 38954 H1          -8.7130     9.7180    19.8090 H      6681  TIP6531     0.2052
 38955 H2         -10.1530    10.1080    20.0660 H      6681  TIP6531     0.2052
 38956 OH2        -19.2450     2.4800    39.3590 O.3    6682  TIP6532    -0.4105
 38957 H1         -18.8740     3.2470    38.9230 H      6682  TIP6532     0.2052
 38958 H2         -20.0910     2.3470    38.9320 H      6682  TIP6532     0.2052
 38959 OH2         30.5140    28.9450    25.5690 O.3    6683  TIP6533    -0.4105
 38960 H1          30.0590    29.3560    24.8340 H      6683  TIP6533     0.2052
 38961 H2          31.1500    29.6010    25.8550 H      6683  TIP6533     0.2052
 38962 OH2         -9.3270    27.5460    23.8710 O.3    6684  TIP6534    -0.4105
 38963 H1          -9.7560    27.0170    23.1990 H      6684  TIP6534     0.2052
 38964 H2          -8.4120    27.5920    23.5940 H      6684  TIP6534     0.2052
 38965 OH2        -30.9130   -23.7190    38.0530 O.3    6685  TIP6535    -0.4105
 38966 H1         -31.0210   -23.5100    38.9810 H      6685  TIP6535     0.2052
 38967 H2         -29.9960   -23.5170    37.8670 H      6685  TIP6535     0.2052
 38968 OH2        -27.8190   -13.1530    33.5330 O.3    6686  TIP6536    -0.4105
 38969 H1         -27.6510   -13.5060    34.4070 H      6686  TIP6536     0.2052
 38970 H2         -27.1310   -12.5000    33.4020 H      6686  TIP6536     0.2052
 38971 OH2         -6.0860   -20.1000    26.7750 O.3    6687  TIP6537    -0.4105
 38972 H1          -5.6070   -19.8640    25.9810 H      6687  TIP6537     0.2052
 38973 H2          -6.6730   -20.8050    26.5010 H      6687  TIP6537     0.2052
 38974 OH2          7.6780   -27.1170   -51.1310 O.3    6688  TIP6538    -0.4105
 38975 H1           7.3160   -27.0350   -52.0130 H      6688  TIP6538     0.2052
 38976 H2           7.7870   -28.0590   -51.0020 H      6688  TIP6538     0.2052
 38977 OH2          4.8070    12.9260   -43.1180 O.3    6689  TIP6539    -0.4105
 38978 H1           4.9310    13.8170   -42.7890 H      6689  TIP6539     0.2052
 38979 H2           3.8980    12.9040   -43.4140 H      6689  TIP6539     0.2052
 38980 OH2        -20.0900   -20.0110    33.5080 O.3    6690  TIP6540    -0.4105
 38981 H1         -19.2400   -19.5700    33.5140 H      6690  TIP6540     0.2052
 38982 H2         -20.6150   -19.5120    32.8830 H      6690  TIP6540     0.2052
 38983 OH2         32.6320    12.4530    50.8590 O.3    6691  TIP6541    -0.4105
 38984 H1          32.6090    12.1240    51.7580 H      6691  TIP6541     0.2052
 38985 H2          31.7140    12.6080    50.6360 H      6691  TIP6541     0.2052
 38986 OH2        -18.9140   -19.2980   -18.2450 O.3    6692  TIP6542    -0.4105
 38987 H1         -19.4180   -20.0880   -18.4370 H      6692  TIP6542     0.2052
 38988 H2         -19.5500   -18.5850   -18.3090 H      6692  TIP6542     0.2052
 38989 OH2        -28.6190   -18.2330    30.7830 O.3    6693  TIP6543    -0.4105
 38990 H1         -28.9880   -17.3810    31.0150 H      6693  TIP6543     0.2052
 38991 H2         -29.3360   -18.6960    30.3500 H      6693  TIP6543     0.2052
 38992 OH2        -28.1330    -3.0550   -50.5640 O.3    6694  TIP6544    -0.4105
 38993 H1         -28.0010    -2.1070   -50.5550 H      6694  TIP6544     0.2052
 38994 H2         -28.9120    -3.1840   -51.1060 H      6694  TIP6544     0.2052
 38995 OH2        -26.0990    -0.0590   -37.6540 O.3    6695  TIP6545    -0.4105
 38996 H1         -26.5770    -0.6480   -37.0700 H      6695  TIP6545     0.2052
 38997 H2         -25.3840    -0.5930   -38.0010 H      6695  TIP6545     0.2052
 38998 OH2        -29.9500    -1.5510    41.0330 O.3    6696  TIP6546    -0.4105
 38999 H1         -30.5000    -1.4170    40.2610 H      6696  TIP6546     0.2052
 39000 H2         -29.1070    -1.1640    40.7970 H      6696  TIP6546     0.2052
 39001 OH2         24.1930   -26.7560   -43.7590 O.3    6697  TIP6547    -0.4105
 39002 H1          25.1210   -26.7750   -43.5260 H      6697  TIP6547     0.2052
 39003 H2          23.8400   -27.5730   -43.4070 H      6697  TIP6547     0.2052
 39004 OH2        -24.4730   -32.8080   -34.1020 O.3    6698  TIP6548    -0.4105
 39005 H1         -25.0580   -33.5370   -33.8980 H      6698  TIP6548     0.2052
 39006 H2         -24.6630   -32.1530   -33.4300 H      6698  TIP6548     0.2052
 39007 OH2        -32.0210   -27.6890   -24.8690 O.3    6699  TIP6549    -0.4105
 39008 H1         -32.6890   -27.8390   -25.5370 H      6699  TIP6549     0.2052
 39009 H2         -31.5350   -28.5130   -24.8270 H      6699  TIP6549     0.2052
 39010 OH2        -20.9270     2.3100    32.6440 O.3    6700  TIP6550    -0.4105
 39011 H1         -21.6470     2.7790    32.2240 H      6700  TIP6550     0.2052
 39012 H2         -20.1360     2.7280    32.3050 H      6700  TIP6550     0.2052
 39013 OH2         -5.9650    32.0340    38.8140 O.3    6701  TIP6551    -0.4105
 39014 H1          -5.7940    31.4010    39.5120 H      6701  TIP6551     0.2052
 39015 H2          -5.5110    31.6780    38.0510 H      6701  TIP6551     0.2052
 39016 OH2          2.7280   -22.3790    32.0110 O.3    6702  TIP6552    -0.4105
 39017 H1           2.2450   -22.8500    32.6900 H      6702  TIP6552     0.2052
 39018 H2           3.6490   -22.5240    32.2260 H      6702  TIP6552     0.2052
 39019 OH2         27.5790   -11.1340   -32.8650 O.3    6703  TIP6553    -0.4105
 39020 H1          27.4900   -11.0440   -33.8140 H      6703  TIP6553     0.2052
 39021 H2          26.6960   -11.3370   -32.5590 H      6703  TIP6553     0.2052
 39022 OH2         22.9480   -30.0030   -55.1400 O.3    6704  TIP6554    -0.4105
 39023 H1          22.4340   -30.6270   -54.6270 H      6704  TIP6554     0.2052
 39024 H2          23.8180   -30.0240   -54.7410 H      6704  TIP6554     0.2052
 39025 OH2        -26.2800    10.7630    32.8120 O.3    6705  TIP6555    -0.4105
 39026 H1         -26.7930    11.0180    33.5790 H      6705  TIP6555     0.2052
 39027 H2         -26.4780     9.8350    32.6890 H      6705  TIP6555     0.2052
 39028 OH2         -4.3640    -9.9040   -53.3780 O.3    6706  TIP6556    -0.4105
 39029 H1          -3.8790    -9.5420   -52.6370 H      6706  TIP6556     0.2052
 39030 H2          -3.8340   -10.6440   -53.6730 H      6706  TIP6556     0.2052
 39031 OH2         25.4740    14.0870    27.5560 O.3    6707  TIP6557    -0.4105
 39032 H1          25.1560    13.9970    28.4540 H      6707  TIP6557     0.2052
 39033 H2          26.0260    14.8690    27.5740 H      6707  TIP6557     0.2052
 39034 OH2         14.7400     5.5470    32.5470 O.3    6708  TIP6558    -0.4105
 39035 H1          13.8340     5.8540    32.5940 H      6708  TIP6558     0.2052
 39036 H2          14.7390     4.7230    33.0340 H      6708  TIP6558     0.2052
 39037 OH2        -25.3670    -5.2800   -34.6780 O.3    6709  TIP6559    -0.4105
 39038 H1         -25.0600    -4.3730   -34.6610 H      6709  TIP6559     0.2052
 39039 H2         -25.9890    -5.3360   -33.9530 H      6709  TIP6559     0.2052
 39040 OH2        -25.3250     3.7820    48.7370 O.3    6710  TIP6560    -0.4105
 39041 H1         -26.0480     3.1560    48.7010 H      6710  TIP6560     0.2052
 39042 H2         -24.6380     3.3280    49.2240 H      6710  TIP6560     0.2052
 39043 OH2         32.2470     3.7150    43.3220 O.3    6711  TIP6561    -0.4105
 39044 H1          32.6370     3.1400    43.9800 H      6711  TIP6561     0.2052
 39045 H2          31.5760     3.1780    42.9020 H      6711  TIP6561     0.2052
 39046 OH2         -5.1300     3.7770   -43.8180 O.3    6712  TIP6562    -0.4105
 39047 H1          -5.2140     2.8340   -43.9610 H      6712  TIP6562     0.2052
 39048 H2          -4.7730     4.1130   -44.6400 H      6712  TIP6562     0.2052
 39049 OH2         23.4730    20.4470   -55.2650 O.3    6713  TIP6563    -0.4105
 39050 H1          22.7850    19.8150   -55.0560 H      6713  TIP6563     0.2052
 39051 H2          23.5330    21.0020   -54.4880 H      6713  TIP6563     0.2052
 39052 OH2          5.8560   -32.6250   -33.3390 O.3    6714  TIP6564    -0.4105
 39053 H1           5.0000   -32.2960   -33.0660 H      6714  TIP6564     0.2052
 39054 H2           6.4190   -31.8510   -33.3490 H      6714  TIP6564     0.2052
 39055 OH2          6.9450    26.9620   -29.2500 O.3    6715  TIP6565    -0.4105
 39056 H1           6.1400    27.2500   -29.6810 H      6715  TIP6565     0.2052
 39057 H2           7.4110    26.4650   -29.9230 H      6715  TIP6565     0.2052
 39058 OH2        -31.9040    -2.4370    38.2980 O.3    6716  TIP6566    -0.4105
 39059 H1         -31.5860    -3.0390    38.9710 H      6716  TIP6566     0.2052
 39060 H2         -32.5130    -2.9590    37.7760 H      6716  TIP6566     0.2052
 39061 OH2          8.2490   -26.9700    27.5230 O.3    6717  TIP6567    -0.4105
 39062 H1           9.1330   -27.3390    27.5410 H      6717  TIP6567     0.2052
 39063 H2           8.3590   -26.1020    27.1370 H      6717  TIP6567     0.2052
 39064 OH2          0.8820    11.4130   -30.3810 O.3    6718  TIP6568    -0.4105
 39065 H1           1.4250    12.1650   -30.6190 H      6718  TIP6568     0.2052
 39066 H2           0.1470    11.7920   -29.8990 H      6718  TIP6568     0.2052
 39067 OH2        -10.0860    18.4340    30.1370 O.3    6719  TIP6569    -0.4105
 39068 H1         -10.1470    18.7160    31.0500 H      6719  TIP6569     0.2052
 39069 H2         -10.9340    18.6660    29.7580 H      6719  TIP6569     0.2052
 39070 OH2         -9.8000   -28.0920   -44.9870 O.3    6720  TIP6570    -0.4105
 39071 H1          -9.3690   -27.2490   -44.8430 H      6720  TIP6570     0.2052
 39072 H2         -10.0860   -28.0630   -45.9000 H      6720  TIP6570     0.2052
 39073 OH2         -2.1990   -19.0680   -51.3240 O.3    6721  TIP6571    -0.4105
 39074 H1          -2.4100   -19.5190   -52.1410 H      6721  TIP6571     0.2052
 39075 H2          -1.4610   -19.5580   -50.9630 H      6721  TIP6571     0.2052
 39076 OH2         28.7430   -31.7840   -42.0500 O.3    6722  TIP6572    -0.4105
 39077 H1          28.9050   -31.6520   -42.9840 H      6722  TIP6572     0.2052
 39078 H2          28.6290   -32.7300   -41.9570 H      6722  TIP6572     0.2052
 39079 OH2        -15.2170   -16.8630    45.2220 O.3    6723  TIP6573    -0.4105
 39080 H1         -14.4580   -17.4050    45.4400 H      6723  TIP6573     0.2052
 39081 H2         -15.9310   -17.2290    45.7440 H      6723  TIP6573     0.2052
 39082 OH2         22.0180    12.5200    51.8210 O.3    6724  TIP6574    -0.4105
 39083 H1          22.6220    12.1710    52.4760 H      6724  TIP6574     0.2052
 39084 H2          22.3700    13.3830    51.6050 H      6724  TIP6574     0.2052
 39085 OH2         11.4420    28.1330    21.0630 O.3    6725  TIP6575    -0.4105
 39086 H1          12.0990    28.7330    20.7110 H      6725  TIP6575     0.2052
 39087 H2          11.2310    27.5510    20.3330 H      6725  TIP6575     0.2052
 39088 OH2         14.4270    14.7470    35.9870 O.3    6726  TIP6576    -0.4105
 39089 H1          14.4310    13.7930    35.9100 H      6726  TIP6576     0.2052
 39090 H2          13.6700    15.0260    35.4720 H      6726  TIP6576     0.2052
 39091 OH2         31.8380    19.9190   -31.0300 O.3    6727  TIP6577    -0.4105
 39092 H1          31.6690    19.6390   -31.9300 H      6727  TIP6577     0.2052
 39093 H2          32.1710    19.1360   -30.5930 H      6727  TIP6577     0.2052
 39094 OH2         -8.8470     4.0660    50.9390 O.3    6728  TIP6578    -0.4105
 39095 H1          -9.2520     4.8630    50.5970 H      6728  TIP6578     0.2052
 39096 H2          -8.3990     4.3490    51.7370 H      6728  TIP6578     0.2052
 39097 OH2        -15.0440   -14.2080    54.4730 O.3    6729  TIP6579    -0.4105
 39098 H1         -15.3060   -14.6980    53.6930 H      6729  TIP6579     0.2052
 39099 H2         -15.8070   -13.6710    54.6860 H      6729  TIP6579     0.2052
 39100 OH2        -27.4400    -0.3890    40.6050 O.3    6730  TIP6580    -0.4105
 39101 H1         -26.8690    -0.3740    39.8370 H      6730  TIP6580     0.2052
 39102 H2         -26.9640    -0.9160    41.2470 H      6730  TIP6580     0.2052
 39103 OH2          3.5560     5.9360   -44.1620 O.3    6731  TIP6581    -0.4105
 39104 H1           3.4230     5.9040   -45.1100 H      6731  TIP6581     0.2052
 39105 H2           3.6930     6.8630   -43.9700 H      6731  TIP6581     0.2052
 39106 OH2         11.4000   -29.6840    40.7610 O.3    6732  TIP6582    -0.4105
 39107 H1          11.4660   -29.1710    41.5670 H      6732  TIP6582     0.2052
 39108 H2          10.9570   -29.1040    40.1420 H      6732  TIP6582     0.2052
 39109 OH2          3.5170    11.6700   -38.0850 O.3    6733  TIP6583    -0.4105
 39110 H1           3.5760    10.9820   -37.4220 H      6733  TIP6583     0.2052
 39111 H2           4.0060    11.3240   -38.8330 H      6733  TIP6583     0.2052
 39112 OH2        -29.7770    -8.2540    29.6030 O.3    6734  TIP6584    -0.4105
 39113 H1         -28.8710    -8.5360    29.4740 H      6734  TIP6584     0.2052
 39114 H2         -29.8960    -7.5380    28.9790 H      6734  TIP6584     0.2052
 39115 OH2         23.7440    -6.1550   -27.0750 O.3    6735  TIP6585    -0.4105
 39116 H1          22.8250    -6.3160   -27.2870 H      6735  TIP6585     0.2052
 39117 H2          23.8550    -6.5180   -26.1970 H      6735  TIP6585     0.2052
 39118 OH2        -11.7260   -14.3770   -34.6770 O.3    6736  TIP6586    -0.4105
 39119 H1         -11.7600   -15.0770   -34.0250 H      6736  TIP6586     0.2052
 39120 H2         -11.9910   -13.5910   -34.1990 H      6736  TIP6586     0.2052
 39121 OH2         -0.9240    21.6950    45.6390 O.3    6737  TIP6587    -0.4105
 39122 H1          -0.7340    20.9430    45.0790 H      6737  TIP6587     0.2052
 39123 H2          -0.0970    22.1760    45.6820 H      6737  TIP6587     0.2052
 39124 OH2         19.7010   -17.8540   -37.7810 O.3    6738  TIP6588    -0.4105
 39125 H1          19.9500   -16.9340   -37.6850 H      6738  TIP6588     0.2052
 39126 H2          19.5930   -17.9760   -38.7240 H      6738  TIP6588     0.2052
 39127 OH2        -29.3990     0.2440    23.3330 O.3    6739  TIP6589    -0.4105
 39128 H1         -29.7950     0.3170    24.2020 H      6739  TIP6589     0.2052
 39129 H2         -29.9420    -0.3970    22.8750 H      6739  TIP6589     0.2052
 39130 OH2         12.2970    -7.3490   -42.0850 O.3    6740  TIP6590    -0.4105
 39131 H1          12.0340    -6.4760   -42.3760 H      6740  TIP6590     0.2052
 39132 H2          13.0750    -7.5510   -42.6040 H      6740  TIP6590     0.2052
 39133 OH2         -5.2370   -17.1710    29.1650 O.3    6741  TIP6591    -0.4105
 39134 H1          -6.0590   -17.4900    29.5390 H      6741  TIP6591     0.2052
 39135 H2          -4.5810   -17.8080    29.4500 H      6741  TIP6591     0.2052
 39136 OH2        -20.6110    27.2310    48.1080 O.3    6742  TIP6592    -0.4105
 39137 H1         -21.2700    27.1610    47.4170 H      6742  TIP6592     0.2052
 39138 H2         -21.0650    27.6680    48.8290 H      6742  TIP6592     0.2052
 39139 OH2         10.4180   -18.9940    28.5630 O.3    6743  TIP6593    -0.4105
 39140 H1           9.8950   -19.1430    27.7760 H      6743  TIP6593     0.2052
 39141 H2          10.4120   -18.0430    28.6780 H      6743  TIP6593     0.2052
 39142 OH2         30.5700   -32.2590   -32.6320 O.3    6744  TIP6594    -0.4105
 39143 H1          29.6720   -32.5680   -32.7520 H      6744  TIP6594     0.2052
 39144 H2          30.6070   -31.4340   -33.1170 H      6744  TIP6594     0.2052
 39145 OH2          9.2280    29.0510    36.2590 O.3    6745  TIP6595    -0.4105
 39146 H1           8.8840    29.4450    35.4570 H      6745  TIP6595     0.2052
 39147 H2           9.7640    28.3170    35.9550 H      6745  TIP6595     0.2052
 39148 OH2         16.5670    26.6340    44.0040 O.3    6746  TIP6596    -0.4105
 39149 H1          16.3730    26.4350    44.9200 H      6746  TIP6596     0.2052
 39150 H2          17.2600    27.2930    44.0420 H      6746  TIP6596     0.2052
 39151 OH2         17.0100    10.8320   -26.2530 O.3    6747  TIP6597    -0.4105
 39152 H1          17.2160     9.9070   -26.3890 H      6747  TIP6597     0.2052
 39153 H2          16.8420    11.1720   -27.1320 H      6747  TIP6597     0.2052
 39154 OH2          2.1460   -19.6900    47.8540 O.3    6748  TIP6598    -0.4105
 39155 H1           2.7710   -19.2160    47.3050 H      6748  TIP6598     0.2052
 39156 H2           2.4010   -19.4720    48.7510 H      6748  TIP6598     0.2052
 39157 OH2         23.4830     3.5790   -38.6080 O.3    6749  TIP6599    -0.4105
 39158 H1          23.3180     4.1290   -39.3740 H      6749  TIP6599     0.2052
 39159 H2          24.0040     4.1300   -38.0240 H      6749  TIP6599     0.2052
 39160 OH2        -30.9390     6.4070    32.7200 O.3    6750  TIP6600    -0.4105
 39161 H1         -31.7780     6.5490    33.1600 H      6750  TIP6600     0.2052
 39162 H2         -30.5110     5.7220    33.2350 H      6750  TIP6600     0.2052
 39163 OH2        -10.3750    -0.1090   -42.9600 O.3    6751  TIP6601    -0.4105
 39164 H1         -10.8850     0.6350   -43.2800 H      6751  TIP6601     0.2052
 39165 H2         -10.2710    -0.6750   -43.7240 H      6751  TIP6601     0.2052
 39166 OH2         -3.7930    13.5950   -32.5940 O.3    6752  TIP6602    -0.4105
 39167 H1          -3.7180    13.4180   -31.6560 H      6752  TIP6602     0.2052
 39168 H2          -3.7580    14.5490   -32.6620 H      6752  TIP6602     0.2052
 39169 OH2         16.1960    17.8980   -27.9850 O.3    6753  TIP6603    -0.4105
 39170 H1          15.6140    18.4270   -28.5300 H      6753  TIP6603     0.2052
 39171 H2          16.0540    17.0000   -28.2830 H      6753  TIP6603     0.2052
 39172 OH2          9.0480   -23.0210    40.9140 O.3    6754  TIP6604    -0.4105
 39173 H1           8.6720   -22.1620    41.1080 H      6754  TIP6604     0.2052
 39174 H2           8.3350   -23.5060    40.4980 H      6754  TIP6604     0.2052
 39175 OH2        -15.5800    14.5980    32.4570 O.3    6755  TIP6605    -0.4105
 39176 H1         -15.4850    15.0540    33.2930 H      6755  TIP6605     0.2052
 39177 H2         -14.7700    14.7900    31.9850 H      6755  TIP6605     0.2052
 39178 OH2         12.3310   -22.7370    37.2110 O.3    6756  TIP6606    -0.4105
 39179 H1          12.8120   -22.8140    38.0350 H      6756  TIP6606     0.2052
 39180 H2          12.7460   -22.0020    36.7590 H      6756  TIP6606     0.2052
 39181 OH2         -9.8660   -29.3560    33.3270 O.3    6757  TIP6607    -0.4105
 39182 H1         -10.7620   -29.5900    33.0850 H      6757  TIP6607     0.2052
 39183 H2          -9.9080   -29.1850    34.2680 H      6757  TIP6607     0.2052
 39184 OH2         32.7520    24.2950   -19.7320 O.3    6758  TIP6608    -0.4105
 39185 H1          32.2380    24.5420   -18.9640 H      6758  TIP6608     0.2052
 39186 H2          33.5630    23.9360   -19.3730 H      6758  TIP6608     0.2052
 39187 OH2         14.4200   -20.7410   -42.7820 O.3    6759  TIP6609    -0.4105
 39188 H1          14.6500   -20.1940   -43.5330 H      6759  TIP6609     0.2052
 39189 H2          13.5370   -20.4600   -42.5430 H      6759  TIP6609     0.2052
 39190 OH2        -23.9010     1.5200   -52.8550 O.3    6760  TIP6610    -0.4105
 39191 H1         -23.8290     1.1680   -53.7430 H      6760  TIP6610     0.2052
 39192 H2         -23.2040     2.1740   -52.7990 H      6760  TIP6610     0.2052
 39193 OH2          5.1610    24.7160   -53.3620 O.3    6761  TIP6611    -0.4105
 39194 H1           5.7130    25.3450   -53.8270 H      6761  TIP6611     0.2052
 39195 H2           4.5020    25.2540   -52.9230 H      6761  TIP6611     0.2052
 39196 OH2         14.9500    22.4780   -51.0490 O.3    6762  TIP6612    -0.4105
 39197 H1          14.1800    22.0250   -50.7040 H      6762  TIP6612     0.2052
 39198 H2          14.7090    22.7120   -51.9450 H      6762  TIP6612     0.2052
 39199 OH2        -12.3840    26.2210   -25.6110 O.3    6763  TIP6613    -0.4105
 39200 H1         -12.4830    25.3050   -25.3520 H      6763  TIP6613     0.2052
 39201 H2         -13.2760    26.5160   -25.7920 H      6763  TIP6613     0.2052
 39202 OH2          3.3400   -15.3230   -28.0530 O.3    6764  TIP6614    -0.4105
 39203 H1           3.3560   -16.1070   -28.6030 H      6764  TIP6614     0.2052
 39204 H2           4.2160   -15.2820   -27.6700 H      6764  TIP6614     0.2052
 39205 OH2         17.1840    16.4330   -25.4440 O.3    6765  TIP6615    -0.4105
 39206 H1          16.5330    16.2010   -26.1050 H      6765  TIP6615     0.2052
 39207 H2          16.7050    16.4080   -24.6160 H      6765  TIP6615     0.2052
 39208 OH2         26.0710    14.3080   -37.9870 O.3    6766  TIP6616    -0.4105
 39209 H1          25.4980    14.4880   -38.7320 H      6766  TIP6616     0.2052
 39210 H2          25.8490    13.4140   -37.7250 H      6766  TIP6616     0.2052
 39211 OH2         31.2560     2.8170    55.1330 O.3    6767  TIP6617    -0.4105
 39212 H1          30.9550     2.6170    54.2470 H      6767  TIP6617     0.2052
 39213 H2          30.4940     2.6520    55.6890 H      6767  TIP6617     0.2052
 39214 OH2         -5.0780    26.0420   -23.1630 O.3    6768  TIP6618    -0.4105
 39215 H1          -5.3930    25.5060   -23.8910 H      6768  TIP6618     0.2052
 39216 H2          -4.1820    25.7410   -23.0130 H      6768  TIP6618     0.2052
 39217 OH2        -23.0620   -24.3550   -50.2650 O.3    6769  TIP6619    -0.4105
 39218 H1         -22.9760   -23.5740   -50.8130 H      6769  TIP6619     0.2052
 39219 H2         -22.4820   -24.1910   -49.5210 H      6769  TIP6619     0.2052
 39220 OH2         23.4990   -12.6460   -54.7830 O.3    6770  TIP6620    -0.4105
 39221 H1          23.5390   -13.2360   -55.5360 H      6770  TIP6620     0.2052
 39222 H2          23.5990   -13.2200   -54.0240 H      6770  TIP6620     0.2052
 39223 OH2        -25.7080   -20.9650   -51.3430 O.3    6771  TIP6621    -0.4105
 39224 H1         -25.2570   -21.7300   -51.7000 H      6771  TIP6621     0.2052
 39225 H2         -25.9350   -21.2170   -50.4480 H      6771  TIP6621     0.2052
 39226 OH2         21.1700    -5.8650    27.6270 O.3    6772  TIP6622    -0.4105
 39227 H1          20.7350    -5.8920    28.4790 H      6772  TIP6622     0.2052
 39228 H2          20.7920    -6.5980    27.1420 H      6772  TIP6622     0.2052
 39229 OH2          1.9500   -11.4080   -46.5170 O.3    6773  TIP6623    -0.4105
 39230 H1           2.0180   -11.2500   -45.5760 H      6773  TIP6623     0.2052
 39231 H2           2.1670   -10.5660   -46.9180 H      6773  TIP6623     0.2052
 39232 OH2        -25.7220    12.4080   -29.0900 O.3    6774  TIP6624    -0.4105
 39233 H1         -26.0770    13.2490   -28.8010 H      6774  TIP6624     0.2052
 39234 H2         -26.4890    11.8430   -29.1830 H      6774  TIP6624     0.2052
 39235 OH2         -1.4110     9.5630    27.5960 O.3    6775  TIP6625    -0.4105
 39236 H1          -2.0870     9.7970    28.2320 H      6775  TIP6625     0.2052
 39237 H2          -1.6790     8.7060    27.2650 H      6775  TIP6625     0.2052
 39238 OH2         12.2310    22.1930   -55.1930 O.3    6776  TIP6626    -0.4105
 39239 H1          12.0800    21.2830   -55.4490 H      6776  TIP6626     0.2052
 39240 H2          12.0210    22.7020   -55.9760 H      6776  TIP6626     0.2052
 39241 OH2         -8.3940   -15.9380   -54.7700 O.3    6777  TIP6627    -0.4105
 39242 H1          -9.3420   -16.0640   -54.8150 H      6777  TIP6627     0.2052
 39243 H2          -8.2860   -15.0170   -54.5300 H      6777  TIP6627     0.2052
 39244 OH2         -8.3880   -11.2250    43.1280 O.3    6778  TIP6628    -0.4105
 39245 H1          -8.3030   -10.5950    42.4120 H      6778  TIP6628     0.2052
 39246 H2          -9.2920   -11.1280    43.4270 H      6778  TIP6628     0.2052
 39247 OH2        -26.3060   -12.0400   -50.5690 O.3    6779  TIP6629    -0.4105
 39248 H1         -25.8550   -12.8830   -50.6080 H      6779  TIP6629     0.2052
 39249 H2         -25.6140   -11.4060   -50.3790 H      6779  TIP6629     0.2052
 39250 OH2        -12.8140    28.8900    29.4470 O.3    6780  TIP6630    -0.4105
 39251 H1         -12.9210    29.0140    28.5040 H      6780  TIP6630     0.2052
 39252 H2         -11.9120    29.1590    29.6240 H      6780  TIP6630     0.2052
 39253 OH2        -17.4730   -31.5380    25.6870 O.3    6781  TIP6631    -0.4105
 39254 H1         -16.8670   -31.1010    26.2860 H      6781  TIP6631     0.2052
 39255 H2         -17.8610   -30.8270    25.1780 H      6781  TIP6631     0.2052
 39256 OH2        -18.3800    31.8140    50.2550 O.3    6782  TIP6632    -0.4105
 39257 H1         -17.6780    32.2160    50.7670 H      6782  TIP6632     0.2052
 39258 H2         -18.1250    30.8940    50.1800 H      6782  TIP6632     0.2052
 39259 OH2          7.8190    20.3380   -19.0130 O.3    6783  TIP6633    -0.4105
 39260 H1           7.8040    19.4440   -18.6710 H      6783  TIP6633     0.2052
 39261 H2           8.6980    20.6580   -18.8090 H      6783  TIP6633     0.2052
 39262 OH2          6.5340    27.0600    33.6190 O.3    6784  TIP6634    -0.4105
 39263 H1           6.7890    26.3760    33.0000 H      6784  TIP6634     0.2052
 39264 H2           5.8680    27.5670    33.1550 H      6784  TIP6634     0.2052
 39265 OH2         13.4510     4.1200    43.1170 O.3    6785  TIP6635    -0.4105
 39266 H1          13.7790     4.9540    42.7810 H      6785  TIP6635     0.2052
 39267 H2          13.7470     4.0940    44.0260 H      6785  TIP6635     0.2052
 39268 OH2         23.7070    12.6950   -15.7100 O.3    6786  TIP6636    -0.4105
 39269 H1          23.1440    13.3880   -16.0570 H      6786  TIP6636     0.2052
 39270 H2          23.3060    12.4550   -14.8750 H      6786  TIP6636     0.2052
 39271 OH2        -28.5640     8.6790    33.6580 O.3    6787  TIP6637    -0.4105
 39272 H1         -29.1210     9.3530    34.0470 H      6787  TIP6637     0.2052
 39273 H2         -29.1690     7.9780    33.4140 H      6787  TIP6637     0.2052
 39274 OH2         30.0760    -7.6060    19.2190 O.3    6788  TIP6638    -0.4105
 39275 H1          30.4880    -8.4230    18.9390 H      6788  TIP6638     0.2052
 39276 H2          29.5840    -7.3100    18.4530 H      6788  TIP6638     0.2052
 39277 OH2        -13.4630    -5.5620   -40.5180 O.3    6789  TIP6639    -0.4105
 39278 H1         -13.0950    -6.4360   -40.3880 H      6789  TIP6639     0.2052
 39279 H2         -12.9170    -5.1710   -41.2010 H      6789  TIP6639     0.2052
 39280 OH2          7.4720     7.0110    31.3180 O.3    6790  TIP6640    -0.4105
 39281 H1           6.6800     6.9890    30.7800 H      6790  TIP6640     0.2052
 39282 H2           7.9380     6.2060    31.0920 H      6790  TIP6640     0.2052
 39283 OH2         28.1950     0.4720    54.6850 O.3    6791  TIP6641    -0.4105
 39284 H1          27.7980     0.0380    55.4400 H      6791  TIP6641     0.2052
 39285 H2          28.5820     1.2710    55.0440 H      6791  TIP6641     0.2052
 39286 OH2         -7.8260     3.4710    25.8170 O.3    6792  TIP6642    -0.4105
 39287 H1          -8.4220     3.5000    26.5650 H      6792  TIP6642     0.2052
 39288 H2          -7.8760     4.3480    25.4360 H      6792  TIP6642     0.2052
 39289 OH2         28.9060   -15.5920   -52.7780 O.3    6793  TIP6643    -0.4105
 39290 H1          29.5850   -15.0550   -52.3700 H      6793  TIP6643     0.2052
 39291 H2          28.4270   -14.9860   -53.3430 H      6793  TIP6643     0.2052
 39292 OH2          4.7920   -29.5830   -38.7960 O.3    6794  TIP6644    -0.4105
 39293 H1           5.0520   -30.4460   -38.4730 H      6794  TIP6644     0.2052
 39294 H2           4.7960   -29.6720   -39.7490 H      6794  TIP6644     0.2052
 39295 OH2          1.8980    -8.5080    39.6880 O.3    6795  TIP6645    -0.4105
 39296 H1           2.4490    -9.2860    39.7730 H      6795  TIP6645     0.2052
 39297 H2           1.0840    -8.8310    39.3000 H      6795  TIP6645     0.2052
 39298 OH2         -4.9180   -20.0920    45.4660 O.3    6796  TIP6646    -0.4105
 39299 H1          -4.9120   -20.3780    46.3800 H      6796  TIP6646     0.2052
 39300 H2          -5.8290   -19.8530    45.2950 H      6796  TIP6646     0.2052
 39301 OH2         17.6570    16.8780   -41.6990 O.3    6797  TIP6647    -0.4105
 39302 H1          17.7390    16.6180   -42.6170 H      6797  TIP6647     0.2052
 39303 H2          17.9120    17.8010   -41.6870 H      6797  TIP6647     0.2052
 39304 OH2         32.8540   -14.6940    36.4600 O.3    6798  TIP6648    -0.4105
 39305 H1          33.7590   -14.4450    36.6490 H      6798  TIP6648     0.2052
 39306 H2          32.6310   -15.3260    37.1430 H      6798  TIP6648     0.2052
 39307 OH2         13.6730    -4.3090   -33.7610 O.3    6799  TIP6649    -0.4105
 39308 H1          13.3920    -5.1510   -33.4030 H      6799  TIP6649     0.2052
 39309 H2          13.4580    -3.6740   -33.0780 H      6799  TIP6649     0.2052
 39310 OH2         -9.7600   -22.4120   -24.2190 O.3    6800  TIP6650    -0.4105
 39311 H1          -9.5430   -21.5790   -24.6360 H      6800  TIP6650     0.2052
 39312 H2          -9.6030   -22.2620   -23.2870 H      6800  TIP6650     0.2052
 39313 OH2        -30.0460     7.6610   -19.5100 O.3    6801  TIP6651    -0.4105
 39314 H1         -29.6440     6.8480   -19.2050 H      6801  TIP6651     0.2052
 39315 H2         -30.6430     7.9130   -18.8050 H      6801  TIP6651     0.2052
 39316 OH2        -27.2490    18.8520    34.8630 O.3    6802  TIP6652    -0.4105
 39317 H1         -26.7320    19.6130    35.1260 H      6802  TIP6652     0.2052
 39318 H2         -28.0820    19.2190    34.5670 H      6802  TIP6652     0.2052
 39319 OH2         -3.1860    16.9300    46.5040 O.3    6803  TIP6653    -0.4105
 39320 H1          -4.0080    17.4010    46.3650 H      6803  TIP6653     0.2052
 39321 H2          -2.6940    17.0620    45.6940 H      6803  TIP6653     0.2052
 39322 OH2         19.8750     9.2730    41.2660 O.3    6804  TIP6654    -0.4105
 39323 H1          20.4080     9.7160    40.6060 H      6804  TIP6654     0.2052
 39324 H2          20.0640     9.7400    42.0800 H      6804  TIP6654     0.2052
 39325 OH2         24.8700    -3.5660   -19.2710 O.3    6805  TIP6655    -0.4105
 39326 H1          24.8350    -4.5220   -19.2460 H      6805  TIP6655     0.2052
 39327 H2          25.3770    -3.3650   -20.0580 H      6805  TIP6655     0.2052
 39328 OH2          8.0840   -13.4000    50.8930 O.3    6806  TIP6656    -0.4105
 39329 H1           7.1990   -13.4610    50.5350 H      6806  TIP6656     0.2052
 39330 H2           8.3260   -14.3040    51.0920 H      6806  TIP6656     0.2052
 39331 OH2        -21.3950     4.8140    36.5660 O.3    6807  TIP6657    -0.4105
 39332 H1         -21.0620     4.5630    37.4280 H      6807  TIP6657     0.2052
 39333 H2         -22.2730     5.1560    36.7390 H      6807  TIP6657     0.2052
 39334 OH2        -25.6140   -16.0440    32.5430 O.3    6808  TIP6658    -0.4105
 39335 H1         -25.8380   -16.6400    33.2570 H      6808  TIP6658     0.2052
 39336 H2         -26.4590   -15.7280    32.2210 H      6808  TIP6658     0.2052
 39337 OH2         -3.1990    10.8110    34.6390 O.3    6809  TIP6659    -0.4105
 39338 H1          -3.4750    11.6950    34.8810 H      6809  TIP6659     0.2052
 39339 H2          -2.5350    10.9440    33.9620 H      6809  TIP6659     0.2052
 39340 OH2         -0.7200     4.0360   -28.1260 O.3    6810  TIP6660    -0.4105
 39341 H1          -0.6390     3.3450   -27.4690 H      6810  TIP6660     0.2052
 39342 H2          -1.1700     4.7480   -27.6700 H      6810  TIP6660     0.2052
 39343 OH2        -17.6720   -19.7530    42.9790 O.3    6811  TIP6661    -0.4105
 39344 H1         -16.8740   -19.8870    43.4900 H      6811  TIP6661     0.2052
 39345 H2         -17.8990   -20.6250    42.6550 H      6811  TIP6661     0.2052
 39346 OH2        -26.0260   -17.6800   -38.7230 O.3    6812  TIP6662    -0.4105
 39347 H1         -25.8230   -16.7450   -38.7430 H      6812  TIP6662     0.2052
 39348 H2         -26.1000   -17.8890   -37.7920 H      6812  TIP6662     0.2052
 39349 OH2        -13.3570     6.8300   -42.5810 O.3    6813  TIP6663    -0.4105
 39350 H1         -13.0670     6.7810   -41.6700 H      6813  TIP6663     0.2052
 39351 H2         -12.5950     7.1600   -43.0580 H      6813  TIP6663     0.2052
 39352 OH2         26.7950    26.0080    48.3040 O.3    6814  TIP6664    -0.4105
 39353 H1          27.6050    25.7620    48.7510 H      6814  TIP6664     0.2052
 39354 H2          27.0220    26.0010    47.3740 H      6814  TIP6664     0.2052
 39355 OH2          6.2280    27.2450    20.6000 O.3    6815  TIP6665    -0.4105
 39356 H1           7.0520    27.0900    20.1370 H      6815  TIP6665     0.2052
 39357 H2           5.7680    27.8890    20.0610 H      6815  TIP6665     0.2052
 39358 OH2         -7.2000    24.7480    16.3720 O.3    6816  TIP6666    -0.4105
 39359 H1          -7.4240    24.9480    15.4630 H      6816  TIP6666     0.2052
 39360 H2          -8.0120    24.4110    16.7510 H      6816  TIP6666     0.2052
 39361 OH2        -25.2300     3.1770   -42.5970 O.3    6817  TIP6667    -0.4105
 39362 H1         -24.4570     2.6380   -42.7650 H      6817  TIP6667     0.2052
 39363 H2         -25.3680     3.6590   -43.4120 H      6817  TIP6667     0.2052
 39364 OH2         -9.0150   -10.2420   -21.8980 O.3    6818  TIP6668    -0.4105
 39365 H1          -9.7010    -9.9040   -21.3220 H      6818  TIP6668     0.2052
 39366 H2          -9.0220   -11.1870   -21.7500 H      6818  TIP6668     0.2052
 39367 OH2          2.3300    12.9280    33.2620 O.3    6819  TIP6669    -0.4105
 39368 H1           1.4040    13.1610    33.3260 H      6819  TIP6669     0.2052
 39369 H2           2.3590    12.2390    32.5980 H      6819  TIP6669     0.2052
 39370 OH2         30.9610   -12.7240   -40.4400 O.3    6820  TIP6670    -0.4105
 39371 H1          31.1140   -13.6120   -40.7630 H      6820  TIP6670     0.2052
 39372 H2          31.5730   -12.1800   -40.9370 H      6820  TIP6670     0.2052
 39373 OH2          6.3150     8.0720    39.1550 O.3    6821  TIP6671    -0.4105
 39374 H1           6.3470     7.8410    38.2270 H      6821  TIP6671     0.2052
 39375 H2           6.2460     7.2310    39.6080 H      6821  TIP6671     0.2052
 39376 OH2        -28.7410   -27.8000   -33.9550 O.3    6822  TIP6672    -0.4105
 39377 H1         -29.6710   -27.5830   -33.8920 H      6822  TIP6672     0.2052
 39378 H2         -28.3250   -27.2660   -33.2770 H      6822  TIP6672     0.2052
 39379 OH2         -3.4200   -28.4430   -32.0640 O.3    6823  TIP6673    -0.4105
 39380 H1          -3.9240   -28.0480   -32.7750 H      6823  TIP6673     0.2052
 39381 H2          -3.2770   -27.7270   -31.4450 H      6823  TIP6673     0.2052
 39382 OH2        -20.6650    29.4490    38.1550 O.3    6824  TIP6674    -0.4105
 39383 H1         -20.0390    29.9960    38.6290 H      6824  TIP6674     0.2052
 39384 H2         -20.1370    28.9900    37.5020 H      6824  TIP6674     0.2052
 39385 OH2         21.8060   -14.5940    44.2660 O.3    6825  TIP6675    -0.4105
 39386 H1          21.9370   -15.2890    44.9110 H      6825  TIP6675     0.2052
 39387 H2          22.5900   -14.0490    44.3390 H      6825  TIP6675     0.2052
 39388 OH2        -22.2980   -18.2070   -53.3030 O.3    6826  TIP6676    -0.4105
 39389 H1         -22.6460   -18.6690   -54.0660 H      6826  TIP6676     0.2052
 39390 H2         -22.8700   -18.4690   -52.5820 H      6826  TIP6676     0.2052
 39391 OH2        -12.7320    18.1350    35.3620 O.3    6827  TIP6677    -0.4105
 39392 H1         -12.9960    18.0260    34.4490 H      6827  TIP6677     0.2052
 39393 H2         -12.2020    18.9320    35.3650 H      6827  TIP6677     0.2052
 39394 OH2         -7.7320     2.4490   -24.0940 O.3    6828  TIP6678    -0.4105
 39395 H1          -8.3870     2.6110   -23.4150 H      6828  TIP6678     0.2052
 39396 H2          -7.8840     1.5440   -24.3630 H      6828  TIP6678     0.2052
 39397 OH2        -10.1890   -21.1400   -50.3680 O.3    6829  TIP6679    -0.4105
 39398 H1         -10.7000   -20.9540   -51.1560 H      6829  TIP6679     0.2052
 39399 H2         -10.7970   -20.9810   -49.6450 H      6829  TIP6679     0.2052
 39400 OH2         -4.9200    -2.1200    36.8130 O.3    6830  TIP6680    -0.4105
 39401 H1          -4.6640    -2.9180    37.2760 H      6830  TIP6680     0.2052
 39402 H2          -4.1650    -1.9090    36.2630 H      6830  TIP6680     0.2052
 39403 OH2         17.1370   -15.8780   -21.3310 O.3    6831  TIP6681    -0.4105
 39404 H1          16.3670   -15.4640   -21.7230 H      6831  TIP6681     0.2052
 39405 H2          16.8080   -16.7000   -20.9670 H      6831  TIP6681     0.2052
 39406 OH2        -23.5550    -9.4800    33.3200 O.3    6832  TIP6682    -0.4105
 39407 H1         -22.7370    -9.0560    33.5790 H      6832  TIP6682     0.2052
 39408 H2         -24.2410    -8.9390    33.7120 H      6832  TIP6682     0.2052
 39409 OH2         -9.2540   -31.9070   -29.1990 O.3    6833  TIP6683    -0.4105
 39410 H1          -9.3760   -32.8300   -28.9790 H      6833  TIP6683     0.2052
 39411 H2          -9.7620   -31.7820   -30.0000 H      6833  TIP6683     0.2052
 39412 OH2        -29.7760    29.4340    54.4310 O.3    6834  TIP6684    -0.4105
 39413 H1         -30.1500    29.7420    53.6060 H      6834  TIP6684     0.2052
 39414 H2         -30.3150    29.8460    55.1070 H      6834  TIP6684     0.2052
 39415 OH2        -10.4430    21.9770   -40.1420 O.3    6835  TIP6685    -0.4105
 39416 H1         -10.4280    21.7290   -39.2180 H      6835  TIP6685     0.2052
 39417 H2         -11.3540    21.8540   -40.4090 H      6835  TIP6685     0.2052
 39418 OH2          3.9110     7.9320   -13.0650 O.3    6836  TIP6686    -0.4105
 39419 H1           4.2160     7.9400   -12.1580 H      6836  TIP6686     0.2052
 39420 H2           4.0260     8.8340   -13.3650 H      6836  TIP6686     0.2052
 39421 OH2        -18.4190   -25.3000   -36.8850 O.3    6837  TIP6687    -0.4105
 39422 H1         -17.5500   -25.1770   -37.2690 H      6837  TIP6687     0.2052
 39423 H2         -18.5260   -26.2500   -36.8340 H      6837  TIP6687     0.2052
 39424 OH2         12.5600    -3.2030    21.5400 O.3    6838  TIP6688    -0.4105
 39425 H1          12.6900    -2.9650    22.4590 H      6838  TIP6688     0.2052
 39426 H2          12.6880    -2.3840    21.0610 H      6838  TIP6688     0.2052
 39427 OH2         16.6440    26.4730    46.8520 O.3    6839  TIP6689    -0.4105
 39428 H1          15.8930    26.1150    47.3250 H      6839  TIP6689     0.2052
 39429 H2          17.3950    25.9850    47.1900 H      6839  TIP6689     0.2052
 39430 OH2        -21.4670     6.4700   -42.3610 O.3    6840  TIP6690    -0.4105
 39431 H1         -22.0590     7.1950   -42.5620 H      6840  TIP6690     0.2052
 39432 H2         -20.8080     6.4980   -43.0540 H      6840  TIP6690     0.2052
 39433 OH2          4.3350    25.5450   -27.9420 O.3    6841  TIP6691    -0.4105
 39434 H1           4.4850    25.3190   -27.0240 H      6841  TIP6691     0.2052
 39435 H2           5.1510    25.9580   -28.2240 H      6841  TIP6691     0.2052
 39436 OH2         -7.5480    -1.2960    55.2590 O.3    6842  TIP6692    -0.4105
 39437 H1          -8.3100    -1.0420    54.7380 H      6842  TIP6692     0.2052
 39438 H2          -7.0310    -0.4940    55.3340 H      6842  TIP6692     0.2052
 39439 OH2        -14.3310     7.2360   -34.6820 O.3    6843  TIP6693    -0.4105
 39440 H1         -13.6290     7.5110   -35.2720 H      6843  TIP6693     0.2052
 39441 H2         -14.7920     6.5480   -35.1610 H      6843  TIP6693     0.2052
 39442 OH2         21.5080   -19.5700    47.7470 O.3    6844  TIP6694    -0.4105
 39443 H1          21.7880   -18.7960    48.2360 H      6844  TIP6694     0.2052
 39444 H2          21.0000   -19.2200    47.0140 H      6844  TIP6694     0.2052
 39445 OH2        -28.5430   -17.6310   -29.2390 O.3    6845  TIP6695    -0.4105
 39446 H1         -29.2790   -17.9640   -28.7250 H      6845  TIP6695     0.2052
 39447 H2         -28.5790   -16.6820   -29.1220 H      6845  TIP6695     0.2052
 39448 OH2         22.5170     9.9090   -15.6810 O.3    6846  TIP6696    -0.4105
 39449 H1          22.3070     8.9760   -15.6370 H      6846  TIP6696     0.2052
 39450 H2          23.0050    10.0830   -14.8760 H      6846  TIP6696     0.2052
 39451 OH2         22.0360     7.0880    36.4340 O.3    6847  TIP6697    -0.4105
 39452 H1          21.8280     6.3170    35.9060 H      6847  TIP6697     0.2052
 39453 H2          21.3030     7.1650    37.0450 H      6847  TIP6697     0.2052
 39454 OH2          3.6290    19.7730    33.3470 O.3    6848  TIP6698    -0.4105
 39455 H1           3.8330    20.4860    32.7420 H      6848  TIP6698     0.2052
 39456 H2           3.9930    20.0570    34.1850 H      6848  TIP6698     0.2052
 39457 OH2        -28.6940    23.4960    40.3680 O.3    6849  TIP6699    -0.4105
 39458 H1         -28.1230    24.1420    39.9530 H      6849  TIP6699     0.2052
 39459 H2         -28.0940    22.8680    40.7700 H      6849  TIP6699     0.2052
 39460 OH2         -9.0680     5.5130   -24.6580 O.3    6850  TIP6700    -0.4105
 39461 H1          -8.3640     4.9420   -24.9640 H      6850  TIP6700     0.2052
 39462 H2          -9.5650     4.9730   -24.0430 H      6850  TIP6700     0.2052
 39463 OH2        -30.0320    26.7600   -51.8870 O.3    6851  TIP6701    -0.4105
 39464 H1         -30.2710    27.0780   -52.7580 H      6851  TIP6701     0.2052
 39465 H2         -30.8190    26.3180   -51.5690 H      6851  TIP6701     0.2052
 39466 OH2        -23.1750    15.9510    42.8130 O.3    6852  TIP6702    -0.4105
 39467 H1         -23.3490    15.0360    43.0330 H      6852  TIP6702     0.2052
 39468 H2         -23.9250    16.2170    42.2810 H      6852  TIP6702     0.2052
 39469 OH2         22.4320    23.1290    24.2780 O.3    6853  TIP6703    -0.4105
 39470 H1          22.5510    23.5580    23.4310 H      6853  TIP6703     0.2052
 39471 H2          21.5040    22.8970    24.3010 H      6853  TIP6703     0.2052
 39472 OH2         12.9200    32.9250    34.1780 O.3    6854  TIP6704    -0.4105
 39473 H1          12.2030    32.3050    34.0460 H      6854  TIP6704     0.2052
 39474 H2          12.5080    33.6830    34.5920 H      6854  TIP6704     0.2052
 39475 OH2        -13.3030   -31.6380    37.6700 O.3    6855  TIP6705    -0.4105
 39476 H1         -13.4570   -31.2260    38.5210 H      6855  TIP6705     0.2052
 39477 H2         -13.2590   -30.9060    37.0540 H      6855  TIP6705     0.2052
 39478 OH2          8.2970     9.9850   -31.9250 O.3    6856  TIP6706    -0.4105
 39479 H1           7.4400    10.1780   -31.5440 H      6856  TIP6706     0.2052
 39480 H2           8.7440     9.4630   -31.2580 H      6856  TIP6706     0.2052
 39481 OH2        -12.4790   -32.3790   -18.8870 O.3    6857  TIP6707    -0.4105
 39482 H1         -12.1410   -33.2270   -18.5990 H      6857  TIP6707     0.2052
 39483 H2         -11.7020   -31.8260   -18.9680 H      6857  TIP6707     0.2052
 39484 OH2         -5.4430    26.0000    27.9380 O.3    6858  TIP6708    -0.4105
 39485 H1          -5.9380    25.3880    28.4830 H      6858  TIP6708     0.2052
 39486 H2          -4.7520    25.4660    27.5450 H      6858  TIP6708     0.2052
 39487 OH2        -13.3940   -15.2500   -54.5110 O.3    6859  TIP6709    -0.4105
 39488 H1         -13.9280   -15.7040   -53.8590 H      6859  TIP6709     0.2052
 39489 H2         -14.0120   -15.0140   -55.2040 H      6859  TIP6709     0.2052
 39490 OH2         19.6560     1.4130    45.8010 O.3    6860  TIP6710    -0.4105
 39491 H1          19.6890     0.4590    45.8590 H      6860  TIP6710     0.2052
 39492 H2          20.2470     1.6310    45.0810 H      6860  TIP6710     0.2052
 39493 OH2         23.1730    10.3600   -45.3000 O.3    6861  TIP6711    -0.4105
 39494 H1          23.7300     9.5840   -45.2450 H      6861  TIP6711     0.2052
 39495 H2          23.2160    10.6220   -46.2200 H      6861  TIP6711     0.2052
 39496 OH2          9.0570   -28.0690   -31.9070 O.3    6862  TIP6712    -0.4105
 39497 H1           9.1880   -28.1670   -32.8500 H      6862  TIP6712     0.2052
 39498 H2           9.7700   -28.5720   -31.5130 H      6862  TIP6712     0.2052
 39499 OH2         -4.8260    -8.6160   -45.3490 O.3    6863  TIP6713    -0.4105
 39500 H1          -4.5390    -8.0170   -46.0380 H      6863  TIP6713     0.2052
 39501 H2          -4.2800    -9.3940   -45.4640 H      6863  TIP6713     0.2052
 39502 OH2         25.0530   -16.5570    43.2560 O.3    6864  TIP6714    -0.4105
 39503 H1          24.8990   -15.6250    43.1030 H      6864  TIP6714     0.2052
 39504 H2          24.6320   -16.7350    44.0970 H      6864  TIP6714     0.2052
 39505 OH2         29.2990   -13.5570   -27.3220 O.3    6865  TIP6715    -0.4105
 39506 H1          30.2040   -13.8050   -27.5110 H      6865  TIP6715     0.2052
 39507 H2          28.8210   -14.3860   -27.3090 H      6865  TIP6715     0.2052
 39508 OH2         -7.1070    -8.3280   -21.2600 O.3    6866  TIP6716    -0.4105
 39509 H1          -7.2500    -7.5000   -21.7190 H      6866  TIP6716     0.2052
 39510 H2          -7.7290    -8.9350   -21.6600 H      6866  TIP6716     0.2052
 39511 OH2          6.6490    22.4630    32.6160 O.3    6867  TIP6717    -0.4105
 39512 H1           6.3330    23.1440    33.2090 H      6867  TIP6717     0.2052
 39513 H2           7.4030    22.0820    33.0670 H      6867  TIP6717     0.2052
 39514 OH2         21.2720    27.4890    55.3460 O.3    6868  TIP6718    -0.4105
 39515 H1          21.4400    28.1970    54.7240 H      6868  TIP6718     0.2052
 39516 H2          20.3430    27.5760    55.5640 H      6868  TIP6718     0.2052
 39517 OH2         22.1760   -20.5190    54.5010 O.3    6869  TIP6719    -0.4105
 39518 H1          22.0260   -21.4210    54.2180 H      6869  TIP6719     0.2052
 39519 H2          22.2760   -20.5790    55.4510 H      6869  TIP6719     0.2052
 39520 OH2        -12.2420    21.2570   -27.0720 O.3    6870  TIP6720    -0.4105
 39521 H1         -12.7990    22.0120   -27.2600 H      6870  TIP6720     0.2052
 39522 H2         -12.5260    20.5880   -27.6940 H      6870  TIP6720     0.2052
 39523 OH2        -31.8670    -9.8470   -35.8130 O.3    6871  TIP6721    -0.4105
 39524 H1         -32.2910   -10.2210   -36.5860 H      6871  TIP6721     0.2052
 39525 H2         -32.3950   -10.1540   -35.0770 H      6871  TIP6721     0.2052
 39526 OH2        -16.9190   -10.1090   -44.0440 O.3    6872  TIP6722    -0.4105
 39527 H1         -16.3390   -10.2420   -44.7940 H      6872  TIP6722     0.2052
 39528 H2         -17.2710    -9.2280   -44.1660 H      6872  TIP6722     0.2052
 39529 OH2        -18.1690    29.9090    53.7070 O.3    6873  TIP6723    -0.4105
 39530 H1         -18.9910    29.7440    53.2450 H      6873  TIP6723     0.2052
 39531 H2         -17.5440    29.3040    53.3080 H      6873  TIP6723     0.2052
 39532 OH2         -8.5250    25.4870   -29.6620 O.3    6874  TIP6724    -0.4105
 39533 H1          -7.6040    25.3760   -29.4240 H      6874  TIP6724     0.2052
 39534 H2          -8.5940    26.4030   -29.9290 H      6874  TIP6724     0.2052
 39535 OH2        -12.0140    28.3140    48.5750 O.3    6875  TIP6725    -0.4105
 39536 H1         -12.3930    29.1910    48.6400 H      6875  TIP6725     0.2052
 39537 H2         -11.5400    28.1960    49.3980 H      6875  TIP6725     0.2052
 39538 OH2        -28.8810    -1.1980    33.3300 O.3    6876  TIP6726    -0.4105
 39539 H1         -29.5780    -1.5770    33.8660 H      6876  TIP6726     0.2052
 39540 H2         -28.2740    -1.9220    33.1780 H      6876  TIP6726     0.2052
 39541 OH2          5.8890     9.0230   -18.5810 O.3    6877  TIP6727    -0.4105
 39542 H1           5.5070     9.2410   -19.4310 H      6877  TIP6727     0.2052
 39543 H2           5.7760     9.8160   -18.0560 H      6877  TIP6727     0.2052
 39544 OH2         -4.2230   -11.7450    42.6240 O.3    6878  TIP6728    -0.4105
 39545 H1          -4.2670   -10.8370    42.9260 H      6878  TIP6728     0.2052
 39546 H2          -3.3560   -11.8230    42.2250 H      6878  TIP6728     0.2052
 39547 OH2        -20.0600   -10.6380   -43.9110 O.3    6879  TIP6729    -0.4105
 39548 H1         -19.8270    -9.7230   -44.0680 H      6879  TIP6729     0.2052
 39549 H2         -19.6710   -11.1140   -44.6440 H      6879  TIP6729     0.2052
 39550 OH2        -19.5450   -17.1110   -39.9150 O.3    6880  TIP6730    -0.4105
 39551 H1         -19.1050   -17.4730   -40.6850 H      6880  TIP6730     0.2052
 39552 H2         -20.4490   -17.4170   -39.9880 H      6880  TIP6730     0.2052
 39553 OH2        -32.0490   -29.0340    52.4920 O.3    6881  TIP6731    -0.4105
 39554 H1         -32.3820   -28.2970    51.9790 H      6881  TIP6731     0.2052
 39555 H2         -31.1600   -29.1710    52.1650 H      6881  TIP6731     0.2052
 39556 OH2        -26.9120   -18.1820   -35.9010 O.3    6882  TIP6732    -0.4105
 39557 H1         -27.0430   -17.2360   -35.8360 H      6882  TIP6732     0.2052
 39558 H2         -27.7960   -18.5420   -35.9730 H      6882  TIP6732     0.2052
 39559 OH2         10.8810    23.1660   -19.8850 O.3    6883  TIP6733    -0.4105
 39560 H1          11.7010    22.6750   -19.8310 H      6883  TIP6733     0.2052
 39561 H2          11.1110    24.0500   -19.6020 H      6883  TIP6733     0.2052
 39562 OH2          7.3270    27.1590    43.9210 O.3    6884  TIP6734    -0.4105
 39563 H1           7.0740    26.6920    44.7180 H      6884  TIP6734     0.2052
 39564 H2           6.4980    27.3450    43.4800 H      6884  TIP6734     0.2052
 39565 OH2         -0.8830    21.2120   -53.2480 O.3    6885  TIP6735    -0.4105
 39566 H1          -1.4690    21.9470   -53.0670 H      6885  TIP6735     0.2052
 39567 H2          -0.3860    21.4860   -54.0190 H      6885  TIP6735     0.2052
 39568 OH2         18.7890    12.4300    45.0630 O.3    6886  TIP6736    -0.4105
 39569 H1          19.2170    13.2030    45.4310 H      6886  TIP6736     0.2052
 39570 H2          19.3050    12.2160    44.2860 H      6886  TIP6736     0.2052
 39571 OH2         14.5380    -4.9150   -18.7780 O.3    6887  TIP6737    -0.4105
 39572 H1          14.5890    -5.5550   -18.0680 H      6887  TIP6737     0.2052
 39573 H2          13.6550    -5.0200   -19.1320 H      6887  TIP6737     0.2052
 39574 OH2         24.6720    30.1960   -35.9050 O.3    6888  TIP6738    -0.4105
 39575 H1          24.9840    29.8880   -35.0540 H      6888  TIP6738     0.2052
 39576 H2          24.6490    31.1490   -35.8210 H      6888  TIP6738     0.2052
 39577 OH2         11.7910    25.3680   -21.9510 O.3    6889  TIP6739    -0.4105
 39578 H1          12.1670    26.1680   -22.3200 H      6889  TIP6739     0.2052
 39579 H2          11.2670    25.6700   -21.2080 H      6889  TIP6739     0.2052
 39580 OH2        -14.0340   -18.4430   -27.3900 O.3    6890  TIP6740    -0.4105
 39581 H1         -14.6650   -17.9580   -27.9220 H      6890  TIP6740     0.2052
 39582 H2         -13.8980   -19.2620   -27.8660 H      6890  TIP6740     0.2052
 39583 OH2         16.6270    18.7230    23.7750 O.3    6891  TIP6741    -0.4105
 39584 H1          17.0970    17.9020    23.6300 H      6891  TIP6741     0.2052
 39585 H2          17.2710    19.4050    23.5830 H      6891  TIP6741     0.2052
 39586 OH2        -16.4750    10.5750    30.6690 O.3    6892  TIP6742    -0.4105
 39587 H1         -15.5680    10.4370    30.9410 H      6892  TIP6742     0.2052
 39588 H2         -16.5800    10.0250    29.8930 H      6892  TIP6742     0.2052
 39589 OH2          7.6980    25.3750   -34.6510 O.3    6893  TIP6743    -0.4105
 39590 H1           8.5580    25.1730   -35.0190 H      6893  TIP6743     0.2052
 39591 H2           7.0840    25.1970   -35.3630 H      6893  TIP6743     0.2052
 39592 OH2         30.4030    -6.4170    31.6030 O.3    6894  TIP6744    -0.4105
 39593 H1          29.7660    -6.9020    31.0780 H      6894  TIP6744     0.2052
 39594 H2          30.7140    -7.0520    32.2490 H      6894  TIP6744     0.2052
 39595 OH2          2.6790    18.5330   -25.6370 O.3    6895  TIP6745    -0.4105
 39596 H1           3.6150    18.4940   -25.4360 H      6895  TIP6745     0.2052
 39597 H2           2.6260    19.0680   -26.4290 H      6895  TIP6745     0.2052
 39598 OH2        -24.9150    10.8800   -46.7730 O.3    6896  TIP6746    -0.4105
 39599 H1         -25.8010    10.9770   -46.4240 H      6896  TIP6746     0.2052
 39600 H2         -24.3620    10.7780   -45.9990 H      6896  TIP6746     0.2052
 39601 OH2         14.2730     3.0190   -41.9460 O.3    6897  TIP6747    -0.4105
 39602 H1          13.3340     3.0590   -41.7620 H      6897  TIP6747     0.2052
 39603 H2          14.6820     3.4610   -41.2020 H      6897  TIP6747     0.2052
 39604 OH2          5.9710   -27.6420    39.8200 O.3    6898  TIP6748    -0.4105
 39605 H1           5.7920   -27.4960    38.8910 H      6898  TIP6748     0.2052
 39606 H2           5.4330   -26.9920    40.2730 H      6898  TIP6748     0.2052
 39607 OH2         -9.4640   -28.8390    25.4460 O.3    6899  TIP6749    -0.4105
 39608 H1          -8.7710   -28.9400    24.7940 H      6899  TIP6749     0.2052
 39609 H2         -10.1910   -28.4440    24.9630 H      6899  TIP6749     0.2052
 39610 OH2         25.8170    15.4240   -50.0520 O.3    6900  TIP6750    -0.4105
 39611 H1          26.6330    15.4010   -50.5520 H      6900  TIP6750     0.2052
 39612 H2          25.9800    14.8520   -49.3010 H      6900  TIP6750     0.2052
 39613 OH2        -11.9950    -1.1530    40.4540 O.3    6901  TIP6751    -0.4105
 39614 H1         -12.3990    -1.9940    40.6680 H      6901  TIP6751     0.2052
 39615 H2         -12.4490    -0.8640    39.6630 H      6901  TIP6751     0.2052
 39616 OH2        -27.1120   -20.3910   -21.1180 O.3    6902  TIP6752    -0.4105
 39617 H1         -26.9640   -19.4590   -20.9580 H      6902  TIP6752     0.2052
 39618 H2         -26.4250   -20.6400   -21.7360 H      6902  TIP6752     0.2052
 39619 OH2         -9.0970    12.8910    39.5210 O.3    6903  TIP6753    -0.4105
 39620 H1          -8.7880    13.1480    40.3900 H      6903  TIP6753     0.2052
 39621 H2          -8.6220    12.0840    39.3270 H      6903  TIP6753     0.2052
 39622 OH2         25.9090    18.1340   -34.0180 O.3    6904  TIP6754    -0.4105
 39623 H1          25.1810    18.3670   -34.5940 H      6904  TIP6754     0.2052
 39624 H2          26.2760    17.3390   -34.4050 H      6904  TIP6754     0.2052
 39625 OH2        -11.7230    22.1840    29.3350 O.3    6905  TIP6755    -0.4105
 39626 H1         -12.4310    21.6050    29.6170 H      6905  TIP6755     0.2052
 39627 H2         -11.2570    22.4040    30.1420 H      6905  TIP6755     0.2052
 39628 OH2        -11.2940    -6.9860   -39.0260 O.3    6906  TIP6756    -0.4105
 39629 H1         -11.3200    -6.0290   -39.0190 H      6906  TIP6756     0.2052
 39630 H2         -11.6780    -7.2420   -38.1870 H      6906  TIP6756     0.2052
 39631 OH2         22.2090   -31.1100   -45.0280 O.3    6907  TIP6757    -0.4105
 39632 H1          21.4700   -31.6830   -45.2340 H      6907  TIP6757     0.2052
 39633 H2          22.4900   -30.7660   -45.8760 H      6907  TIP6757     0.2052
 39634 OH2         11.5070    14.3950    35.0280 O.3    6908  TIP6758    -0.4105
 39635 H1          11.5560    14.3670    35.9840 H      6908  TIP6758     0.2052
 39636 H2          11.5890    13.4810    34.7560 H      6908  TIP6758     0.2052
 39637 OH2         31.6300   -12.9820    26.4480 O.3    6909  TIP6759    -0.4105
 39638 H1          31.9490   -13.5440    27.1550 H      6909  TIP6759     0.2052
 39639 H2          32.0480   -12.1360    26.6070 H      6909  TIP6759     0.2052
 39640 OH2         25.6800   -28.9010   -29.3150 O.3    6910  TIP6760    -0.4105
 39641 H1          26.0910   -28.2340   -28.7640 H      6910  TIP6760     0.2052
 39642 H2          26.3010   -29.6290   -29.3130 H      6910  TIP6760     0.2052
 39643 OH2         32.6580    -9.9260    23.8750 O.3    6911  TIP6761    -0.4105
 39644 H1          33.0830    -9.0730    23.9630 H      6911  TIP6761     0.2052
 39645 H2          32.3220   -10.1170    24.7510 H      6911  TIP6761     0.2052
 39646 OH2         -1.2470    21.1430   -27.1780 O.3    6912  TIP6762    -0.4105
 39647 H1          -2.0780    20.7700   -26.8850 H      6912  TIP6762     0.2052
 39648 H2          -0.7380    21.2550   -26.3750 H      6912  TIP6762     0.2052
 39649 OH2        -25.0130    20.5040   -44.0660 O.3    6913  TIP6763    -0.4105
 39650 H1         -25.3310    20.7120   -43.1870 H      6913  TIP6763     0.2052
 39651 H2         -25.7200    19.9970   -44.4630 H      6913  TIP6763     0.2052
 39652 OH2          0.4760    28.4640   -25.8910 O.3    6914  TIP6764    -0.4105
 39653 H1          -0.0510    28.1140   -26.6090 H      6914  TIP6764     0.2052
 39654 H2          -0.0710    28.3480   -25.1140 H      6914  TIP6764     0.2052
 39655 OH2         24.0780   -17.3170   -26.2360 O.3    6915  TIP6765    -0.4105
 39656 H1          24.0830   -16.6060   -25.5950 H      6915  TIP6765     0.2052
 39657 H2          23.3300   -17.8600   -25.9870 H      6915  TIP6765     0.2052
 39658 OH2         25.0620   -11.2360   -32.0920 O.3    6916  TIP6766    -0.4105
 39659 H1          25.3150   -10.4640   -31.5850 H      6916  TIP6766     0.2052
 39660 H2          24.5310   -10.8900   -32.8080 H      6916  TIP6766     0.2052
 39661 OH2         12.4830    16.1520    54.7770 O.3    6917  TIP6767    -0.4105
 39662 H1          12.2100    16.8660    55.3520 H      6917  TIP6767     0.2052
 39663 H2          12.7490    15.4520    55.3730 H      6917  TIP6767     0.2052
 39664 OH2         11.3230    -0.9120    27.5060 O.3    6918  TIP6768    -0.4105
 39665 H1          10.9430    -1.6360    27.0080 H      6918  TIP6768     0.2052
 39666 H2          11.1950    -1.1580    28.4220 H      6918  TIP6768     0.2052
 39667 OH2          1.4860   -11.1620   -37.9360 O.3    6919  TIP6769    -0.4105
 39668 H1           1.5540   -11.4700   -37.0320 H      6919  TIP6769     0.2052
 39669 H2           1.6360   -10.2180   -37.8800 H      6919  TIP6769     0.2052
 39670 OH2         31.0680    -5.3200   -44.0040 O.3    6920  TIP6770    -0.4105
 39671 H1          31.3840    -4.5840   -44.5300 H      6920  TIP6770     0.2052
 39672 H2          31.0480    -6.0580   -44.6130 H      6920  TIP6770     0.2052
 39673 OH2        -24.2060    -9.6870   -50.7740 O.3    6921  TIP6771    -0.4105
 39674 H1         -23.3540   -10.0750   -50.9750 H      6921  TIP6771     0.2052
 39675 H2         -24.5430    -9.3970   -51.6220 H      6921  TIP6771     0.2052
 39676 OH2         15.1920   -13.4410    17.7470 O.3    6922  TIP6772    -0.4105
 39677 H1          15.7500   -12.7740    18.1460 H      6922  TIP6772     0.2052
 39678 H2          14.3900   -12.9740    17.5120 H      6922  TIP6772     0.2052
 39679 OH2         21.7500    -9.8240   -34.3750 O.3    6923  TIP6773    -0.4105
 39680 H1          22.6200   -10.1820   -34.1980 H      6923  TIP6773     0.2052
 39681 H2          21.9140    -8.9240   -34.6570 H      6923  TIP6773     0.2052
 39682 OH2          2.8960     6.4500    40.9380 O.3    6924  TIP6774    -0.4105
 39683 H1           1.9440     6.4660    40.8390 H      6924  TIP6774     0.2052
 39684 H2           3.0900     7.1950    41.5070 H      6924  TIP6774     0.2052
 39685 OH2         19.5880    18.4110   -24.5320 O.3    6925  TIP6775    -0.4105
 39686 H1          19.1180    18.2110   -23.7230 H      6925  TIP6775     0.2052
 39687 H2          20.3360    17.8130   -24.5290 H      6925  TIP6775     0.2052
 39688 OH2         30.3470   -17.8430   -53.2280 O.3    6926  TIP6776    -0.4105
 39689 H1          29.6040   -17.3100   -52.9470 H      6926  TIP6776     0.2052
 39690 H2          30.4880   -18.4570   -52.5070 H      6926  TIP6776     0.2052
 39691 OH2          1.1240   -18.2650   -29.4050 O.3    6927  TIP6777    -0.4105
 39692 H1           1.2000   -19.2190   -29.4460 H      6927  TIP6777     0.2052
 39693 H2           2.0120   -17.9480   -29.5730 H      6927  TIP6777     0.2052
 39694 OH2        -21.3060     1.3570    37.7990 O.3    6928  TIP6778    -0.4105
 39695 H1         -21.8760     0.7530    37.3220 H      6928  TIP6778     0.2052
 39696 H2         -21.1870     2.0960    37.2020 H      6928  TIP6778     0.2052
 39697 OH2         -9.4390     1.8740    28.5770 O.3    6929  TIP6779    -0.4105
 39698 H1          -9.2390     2.6520    28.0570 H      6929  TIP6779     0.2052
 39699 H2          -9.0490     1.1510    28.0870 H      6929  TIP6779     0.2052
 39700 OH2         17.2300     4.8060   -33.9060 O.3    6930  TIP6780    -0.4105
 39701 H1          16.3400     5.1550   -33.8520 H      6930  TIP6780     0.2052
 39702 H2          17.5100     4.7210   -32.9950 H      6930  TIP6780     0.2052
 39703 OH2         -8.6830   -13.8600   -26.6590 O.3    6931  TIP6781    -0.4105
 39704 H1          -7.8250   -13.7060   -27.0530 H      6931  TIP6781     0.2052
 39705 H2          -8.8980   -13.0360   -26.2210 H      6931  TIP6781     0.2052
 39706 OH2          0.4030   -22.9060    52.2260 O.3    6932  TIP6782    -0.4105
 39707 H1           0.9920   -23.2970    52.8720 H      6932  TIP6782     0.2052
 39708 H2          -0.0890   -23.6470    51.8710 H      6932  TIP6782     0.2052
 39709 OH2         -4.1220    -1.5920    46.8370 O.3    6933  TIP6783    -0.4105
 39710 H1          -4.7380    -1.3840    46.1340 H      6933  TIP6783     0.2052
 39711 H2          -3.3160    -1.8420    46.3840 H      6933  TIP6783     0.2052
 39712 OH2         22.4460     8.0020   -38.7610 O.3    6934  TIP6784    -0.4105
 39713 H1          22.4310     8.4330   -37.9070 H      6934  TIP6784     0.2052
 39714 H2          23.3550     8.0760   -39.0510 H      6934  TIP6784     0.2052
 39715 OH2        -14.5620   -14.2630    38.0590 O.3    6935  TIP6785    -0.4105
 39716 H1         -13.6790   -14.5370    37.8120 H      6935  TIP6785     0.2052
 39717 H2         -14.7000   -14.6480    38.9240 H      6935  TIP6785     0.2052
 39718 OH2        -22.0570    20.1360    36.6790 O.3    6936  TIP6786    -0.4105
 39719 H1         -21.3410    19.5850    36.3630 H      6936  TIP6786     0.2052
 39720 H2         -22.1980    19.8510    37.5820 H      6936  TIP6786     0.2052
 39721 OH2        -29.1810    26.9570   -37.4660 O.3    6937  TIP6787    -0.4105
 39722 H1         -28.6810    27.5300   -38.0480 H      6937  TIP6787     0.2052
 39723 H2         -28.7250    27.0100   -36.6260 H      6937  TIP6787     0.2052
 39724 OH2         19.7480    27.2820    47.4710 O.3    6938  TIP6788    -0.4105
 39725 H1          18.8200    27.1170    47.3030 H      6938  TIP6788     0.2052
 39726 H2          20.0170    26.5700    48.0520 H      6938  TIP6788     0.2052
 39727 OH2        -14.9960   -32.8830   -48.6910 O.3    6939  TIP6789    -0.4105
 39728 H1         -15.8200   -33.3120   -48.9190 H      6939  TIP6789     0.2052
 39729 H2         -15.2480   -31.9930   -48.4460 H      6939  TIP6789     0.2052
 39730 OH2         -3.7000    21.9130    46.2070 O.3    6940  TIP6790    -0.4105
 39731 H1          -3.3910    21.6080    47.0600 H      6940  TIP6790     0.2052
 39732 H2          -2.9180    21.9150    45.6550 H      6940  TIP6790     0.2052
 39733 OH2         -5.0140    23.1410    23.4220 O.3    6941  TIP6791    -0.4105
 39734 H1          -4.8620    24.0860    23.4120 H      6941  TIP6791     0.2052
 39735 H2          -4.1390    22.7560    23.3820 H      6941  TIP6791     0.2052
 39736 OH2        -12.1020    -3.6550    34.6840 O.3    6942  TIP6792    -0.4105
 39737 H1         -12.9340    -3.2030    34.5440 H      6942  TIP6792     0.2052
 39738 H2         -11.4730    -3.1710    34.1490 H      6942  TIP6792     0.2052
 39739 OH2        -23.2410    10.0670   -34.7210 O.3    6943  TIP6793    -0.4105
 39740 H1         -24.1440    10.0030   -35.0330 H      6943  TIP6793     0.2052
 39741 H2         -22.9150     9.1670   -34.7460 H      6943  TIP6793     0.2052
 39742 OH2          3.8090   -15.8240   -23.9150 O.3    6944  TIP6794    -0.4105
 39743 H1           4.1130   -15.2070   -24.5800 H      6944  TIP6794     0.2052
 39744 H2           4.6110   -16.1830   -23.5360 H      6944  TIP6794     0.2052
 39745 OH2         19.0040    10.4060    52.2430 O.3    6945  TIP6795    -0.4105
 39746 H1          18.5950     9.5620    52.0540 H      6945  TIP6795     0.2052
 39747 H2          19.3680    10.3040    53.1220 H      6945  TIP6795     0.2052
 39748 OH2          6.3380    -6.3150   -17.8350 O.3    6946  TIP6796    -0.4105
 39749 H1           6.9550    -5.5850   -17.7920 H      6946  TIP6796     0.2052
 39750 H2           6.8460    -7.0760   -17.5550 H      6946  TIP6796     0.2052
 39751 OH2         10.3200    -2.1870    25.2430 O.3    6947  TIP6797    -0.4105
 39752 H1           9.7100    -1.7100    24.6800 H      6947  TIP6797     0.2052
 39753 H2           9.9950    -3.0880    25.2400 H      6947  TIP6797     0.2052
 39754 OH2         -3.8090    -3.2170    41.6870 O.3    6948  TIP6798    -0.4105
 39755 H1          -3.4640    -3.9550    41.1840 H      6948  TIP6798     0.2052
 39756 H2          -3.0860    -2.9600    42.2600 H      6948  TIP6798     0.2052
 39757 OH2        -25.2010    25.5560    25.6250 O.3    6949  TIP6799    -0.4105
 39758 H1         -24.9130    26.1240    26.3400 H      6949  TIP6799     0.2052
 39759 H2         -24.5130    24.8940    25.5520 H      6949  TIP6799     0.2052
 39760 OH2          8.9700    -2.5340    31.4370 O.3    6950  TIP6800    -0.4105
 39761 H1           8.4360    -2.6800    32.2180 H      6950  TIP6800     0.2052
 39762 H2           8.7540    -3.2670    30.8590 H      6950  TIP6800     0.2052
 39763 OH2         15.9350    21.4360    38.6860 O.3    6951  TIP6801    -0.4105
 39764 H1          16.5700    21.3550    37.9740 H      6951  TIP6801     0.2052
 39765 H2          16.4070    21.1410    39.4640 H      6951  TIP6801     0.2052
 39766 OH2        -30.0550    28.2000   -44.6700 O.3    6952  TIP6802    -0.4105
 39767 H1         -30.9120    28.0540   -44.2710 H      6952  TIP6802     0.2052
 39768 H2         -29.7490    27.3250   -44.9100 H      6952  TIP6802     0.2052
 39769 OH2         13.5240   -28.7440   -41.9100 O.3    6953  TIP6803    -0.4105
 39770 H1          14.2570   -28.5030   -42.4760 H      6953  TIP6803     0.2052
 39771 H2          12.7440   -28.5530   -42.4320 H      6953  TIP6803     0.2052
 39772 OH2         -8.0810     0.7440    24.8700 O.3    6954  TIP6804    -0.4105
 39773 H1          -8.1050     1.6880    25.0240 H      6954  TIP6804     0.2052
 39774 H2          -8.8820     0.5610    24.3780 H      6954  TIP6804     0.2052
 39775 OH2         17.5820    26.2140   -42.5940 O.3    6955  TIP6805    -0.4105
 39776 H1          18.2870    26.2790   -41.9510 H      6955  TIP6805     0.2052
 39777 H2          16.8590    26.7100   -42.2090 H      6955  TIP6805     0.2052
 39778 OH2          3.6940    -5.5750   -43.3080 O.3    6956  TIP6806    -0.4105
 39779 H1           4.4190    -5.6390   -43.9300 H      6956  TIP6806     0.2052
 39780 H2           2.9270    -5.3930   -43.8520 H      6956  TIP6806     0.2052
 39781 OH2        -21.7180   -22.7530   -32.4730 O.3    6957  TIP6807    -0.4105
 39782 H1         -21.8830   -21.8240   -32.6390 H      6957  TIP6807     0.2052
 39783 H2         -21.2440   -23.0540   -33.2480 H      6957  TIP6807     0.2052
 39784 OH2          9.4560    14.8190   -53.3720 O.3    6958  TIP6808    -0.4105
 39785 H1          10.3210    14.4670   -53.5780 H      6958  TIP6808     0.2052
 39786 H2           9.6070    15.7520   -53.2170 H      6958  TIP6808     0.2052
 39787 OH2          2.0000    29.9340    47.6090 O.3    6959  TIP6809    -0.4105
 39788 H1           2.4000    30.7800    47.8120 H      6959  TIP6809     0.2052
 39789 H2           1.3150    30.1390    46.9720 H      6959  TIP6809     0.2052
 39790 OH2         18.8810   -26.1930    25.3780 O.3    6960  TIP6810    -0.4105
 39791 H1          18.2610   -25.5840    24.9770 H      6960  TIP6810     0.2052
 39792 H2          19.3430   -26.5870    24.6380 H      6960  TIP6810     0.2052
 39793 OH2        -17.4830    20.9570    54.1010 O.3    6961  TIP6811    -0.4105
 39794 H1         -17.2110    20.1200    53.7270 H      6961  TIP6811     0.2052
 39795 H2         -17.1190    20.9540    54.9870 H      6961  TIP6811     0.2052
 39796 OH2          2.0480    30.9780    30.2630 O.3    6962  TIP6812    -0.4105
 39797 H1           1.9960    30.7300    29.3400 H      6962  TIP6812     0.2052
 39798 H2           1.9700    30.1500    30.7380 H      6962  TIP6812     0.2052
 39799 OH2        -14.3370    24.2270    41.8440 O.3    6963  TIP6813    -0.4105
 39800 H1         -15.2340    24.4800    41.6270 H      6963  TIP6813     0.2052
 39801 H2         -14.1240    24.7430    42.6210 H      6963  TIP6813     0.2052
 39802 OH2         25.0370   -12.8610    29.9320 O.3    6964  TIP6814    -0.4105
 39803 H1          25.6450   -12.9360    30.6670 H      6964  TIP6814     0.2052
 39804 H2          25.2290   -13.6210    29.3830 H      6964  TIP6814     0.2052
 39805 OH2        -23.7500   -10.9940    52.1620 O.3    6965  TIP6815    -0.4105
 39806 H1         -23.7820   -11.9480    52.2340 H      6965  TIP6815     0.2052
 39807 H2         -23.0170   -10.8220    51.5700 H      6965  TIP6815     0.2052
 39808 OH2         31.4410   -28.2590    49.8780 O.3    6966  TIP6816    -0.4105
 39809 H1          30.7650   -28.1890    50.5530 H      6966  TIP6816     0.2052
 39810 H2          32.1270   -27.6550    50.1620 H      6966  TIP6816     0.2052
 39811 OH2        -12.7010   -25.0110   -31.6800 O.3    6967  TIP6817    -0.4105
 39812 H1         -12.9540   -25.5160   -30.9070 H      6967  TIP6817     0.2052
 39813 H2         -13.5050   -24.5700   -31.9530 H      6967  TIP6817     0.2052
 39814 OH2        -17.8110    24.2460   -26.9560 O.3    6968  TIP6818    -0.4105
 39815 H1         -18.5540    24.6660   -26.5230 H      6968  TIP6818     0.2052
 39816 H2         -18.1910    23.4940   -27.4090 H      6968  TIP6818     0.2052
 39817 OH2         29.6870   -20.2440    42.6420 O.3    6969  TIP6819    -0.4105
 39818 H1          30.3280   -20.3490    41.9380 H      6969  TIP6819     0.2052
 39819 H2          28.8970   -19.9320    42.2010 H      6969  TIP6819     0.2052
 39820 OH2         26.2460   -14.7090   -24.9630 O.3    6970  TIP6820    -0.4105
 39821 H1          26.3400   -13.8130   -25.2860 H      6970  TIP6820     0.2052
 39822 H2          26.9570   -14.8110   -24.3290 H      6970  TIP6820     0.2052
 39823 OH2         -4.2860    11.0230   -23.9390 O.3    6971  TIP6821    -0.4105
 39824 H1          -4.2410    11.2340   -23.0060 H      6971  TIP6821     0.2052
 39825 H2          -3.7270    11.6750   -24.3600 H      6971  TIP6821     0.2052
 39826 OH2        -13.2360   -10.8700   -15.4510 O.3    6972  TIP6822    -0.4105
 39827 H1         -12.4470   -11.1400   -15.9200 H      6972  TIP6822     0.2052
 39828 H2         -13.6860   -10.2810   -16.0570 H      6972  TIP6822     0.2052
 39829 OH2        -14.6900    32.9600   -41.8790 O.3    6973  TIP6823    -0.4105
 39830 H1         -15.1150    33.1710   -42.7100 H      6973  TIP6823     0.2052
 39831 H2         -14.2800    33.7800   -41.6040 H      6973  TIP6823     0.2052
 39832 OH2        -21.7520    28.0770   -22.7910 O.3    6974  TIP6824    -0.4105
 39833 H1         -20.8070    27.9600   -22.8950 H      6974  TIP6824     0.2052
 39834 H2         -21.9720    27.5720   -22.0090 H      6974  TIP6824     0.2052
 39835 OH2        -22.6870     6.4520    19.8720 O.3    6975  TIP6825    -0.4105
 39836 H1         -23.2550     6.5540    20.6360 H      6975  TIP6825     0.2052
 39837 H2         -22.3410     5.5620    19.9480 H      6975  TIP6825     0.2052
 39838 OH2        -15.6560    -1.5740    39.1730 O.3    6976  TIP6826    -0.4105
 39839 H1         -16.1270    -0.8410    39.5700 H      6976  TIP6826     0.2052
 39840 H2         -14.8820    -1.1750    38.7760 H      6976  TIP6826     0.2052
 39841 OH2         -4.1000     1.2500   -38.7790 O.3    6977  TIP6827    -0.4105
 39842 H1          -4.1260     1.1390   -39.7290 H      6977  TIP6827     0.2052
 39843 H2          -3.2060     1.5400   -38.5960 H      6977  TIP6827     0.2052
 39844 OH2        -13.6120     9.4150    -9.7250 O.3    6978  TIP6828    -0.4105
 39845 H1         -14.1520     9.2620   -10.5010 H      6978  TIP6828     0.2052
 39846 H2         -12.9630    10.0590   -10.0080 H      6978  TIP6828     0.2052
 39847 OH2         13.4480   -13.4620   -44.6370 O.3    6979  TIP6829    -0.4105
 39848 H1          13.6780   -13.3380   -43.7160 H      6979  TIP6829     0.2052
 39849 H2          13.3610   -14.4100   -44.7380 H      6979  TIP6829     0.2052
 39850 OH2        -17.7080    11.6020    17.6770 O.3    6980  TIP6830    -0.4105
 39851 H1         -16.7590    11.5480    17.5590 H      6980  TIP6830     0.2052
 39852 H2         -17.8730    12.5240    17.8720 H      6980  TIP6830     0.2052
 39853 OH2        -12.3770   -25.1560    32.3320 O.3    6981  TIP6831    -0.4105
 39854 H1         -12.7290   -24.5580    32.9910 H      6981  TIP6831     0.2052
 39855 H2         -12.9680   -25.9090    32.3510 H      6981  TIP6831     0.2052
 39856 OH2         20.9030    17.4570    24.0780 O.3    6982  TIP6832    -0.4105
 39857 H1          20.3700    16.6940    23.8540 H      6982  TIP6832     0.2052
 39858 H2          21.5130    17.5470    23.3470 H      6982  TIP6832     0.2052
 39859 OH2         32.4940    16.5380   -26.6990 O.3    6983  TIP6833    -0.4105
 39860 H1          33.0960    17.2680   -26.5540 H      6983  TIP6833     0.2052
 39861 H2          33.0080    15.7580   -26.4910 H      6983  TIP6833     0.2052
 39862 OH2         14.0820    -6.8410   -49.1060 O.3    6984  TIP6834    -0.4105
 39863 H1          14.1070    -5.9490   -49.4510 H      6984  TIP6834     0.2052
 39864 H2          13.2540    -6.8910   -48.6290 H      6984  TIP6834     0.2052
 39865 OH2          2.0070    -2.3640   -43.5030 O.3    6985  TIP6835    -0.4105
 39866 H1           1.9610    -1.4080   -43.4950 H      6985  TIP6835     0.2052
 39867 H2           2.9030    -2.5600   -43.7750 H      6985  TIP6835     0.2052
 39868 OH2          7.0620    25.0910   -37.3810 O.3    6986  TIP6836    -0.4105
 39869 H1           7.0350    24.2620   -37.8590 H      6986  TIP6836     0.2052
 39870 H2           6.1500    25.2620   -37.1460 H      6986  TIP6836     0.2052
 39871 OH2        -14.7420    23.7240    21.3950 O.3    6987  TIP6837    -0.4105
 39872 H1         -14.8250    24.3850    20.7070 H      6987  TIP6837     0.2052
 39873 H2         -13.8230    23.4590    21.3630 H      6987  TIP6837     0.2052
 39874 OH2         -0.4300     2.7970   -51.2000 O.3    6988  TIP6838    -0.4105
 39875 H1          -0.5700     2.2410   -51.9660 H      6988  TIP6838     0.2052
 39876 H2           0.5130     2.9570   -51.1880 H      6988  TIP6838     0.2052
 39877 OH2         10.8870   -12.8520   -44.9870 O.3    6989  TIP6839    -0.4105
 39878 H1          11.7580   -13.0430   -44.6380 H      6989  TIP6839     0.2052
 39879 H2          11.0240   -12.1190   -45.5860 H      6989  TIP6839     0.2052
 39880 OH2        -20.4700    15.8660   -22.8700 O.3    6990  TIP6840    -0.4105
 39881 H1         -19.5680    15.7400   -22.5750 H      6990  TIP6840     0.2052
 39882 H2         -21.0020    15.4230   -22.2100 H      6990  TIP6840     0.2052
 39883 OH2         23.6920    18.8120    49.6660 O.3    6991  TIP6841    -0.4105
 39884 H1          23.6180    18.5930    48.7370 H      6991  TIP6841     0.2052
 39885 H2          23.7050    19.7690    49.6860 H      6991  TIP6841     0.2052
 39886 OH2         13.0510    16.4020    25.7540 O.3    6992  TIP6842    -0.4105
 39887 H1          12.2250    16.8180    25.5080 H      6992  TIP6842     0.2052
 39888 H2          12.8640    15.9700    26.5870 H      6992  TIP6842     0.2052
 39889 OH2        -26.3030    29.6330   -40.8540 O.3    6993  TIP6843    -0.4105
 39890 H1         -26.3620    30.5840   -40.9500 H      6993  TIP6843     0.2052
 39891 H2         -26.4520    29.2930   -41.7360 H      6993  TIP6843     0.2052
 39892 OH2         29.3850    13.5910   -53.8900 O.3    6994  TIP6844    -0.4105
 39893 H1          29.9780    13.0150   -53.4070 H      6994  TIP6844     0.2052
 39894 H2          29.2040    13.1210   -54.7040 H      6994  TIP6844     0.2052
 39895 OH2        -10.2130   -17.7500   -31.2350 O.3    6995  TIP6845    -0.4105
 39896 H1         -10.7740   -18.5250   -31.2710 H      6995  TIP6845     0.2052
 39897 H2          -9.7160   -17.8510   -30.4230 H      6995  TIP6845     0.2052
 39898 OH2        -20.9290   -20.3380   -21.0710 O.3    6996  TIP6846    -0.4105
 39899 H1         -21.3740   -21.1520   -20.8350 H      6996  TIP6846     0.2052
 39900 H2         -20.0080   -20.4990   -20.8640 H      6996  TIP6846     0.2052
 39901 OH2         19.8760     2.3030    26.9860 O.3    6997  TIP6847    -0.4105
 39902 H1          18.9460     2.5130    26.9110 H      6997  TIP6847     0.2052
 39903 H2          20.3240     3.0430    26.5770 H      6997  TIP6847     0.2052
 39904 OH2        -30.3020     5.4320    40.6650 O.3    6998  TIP6848    -0.4105
 39905 H1         -30.4380     4.5010    40.4870 H      6998  TIP6848     0.2052
 39906 H2         -29.3810     5.5840    40.4530 H      6998  TIP6848     0.2052
 39907 OH2         -8.8380    32.4370   -55.1900 O.3    6999  TIP6849    -0.4105
 39908 H1          -8.8890    31.9790   -54.3510 H      6999  TIP6849     0.2052
 39909 H2          -8.0540    32.0820   -55.6090 H      6999  TIP6849     0.2052
 39910 OH2        -11.3260     6.3090   -40.3440 O.3    7000  TIP6850    -0.4105
 39911 H1         -11.0760     5.4380   -40.6520 H      7000  TIP6850     0.2052
 39912 H2         -10.5710     6.8610   -40.5470 H      7000  TIP6850     0.2052
 39913 OH2         18.2930    11.0480    21.3350 O.3    7001  TIP6851    -0.4105
 39914 H1          18.9250    11.0340    20.6170 H      7001  TIP6851     0.2052
 39915 H2          18.6740    10.4760    22.0010 H      7001  TIP6851     0.2052
 39916 OH2        -19.3630   -32.4510    44.2570 O.3    7002  TIP6852    -0.4105
 39917 H1         -18.5470   -32.5660    44.7440 H      7002  TIP6852     0.2052
 39918 H2         -19.1100   -32.5450    43.3390 H      7002  TIP6852     0.2052
 39919 OH2          0.2960   -15.2400   -53.2120 O.3    7003  TIP6853    -0.4105
 39920 H1          -0.3620   -15.0770   -53.8880 H      7003  TIP6853     0.2052
 39921 H2           0.8950   -14.4970   -53.2760 H      7003  TIP6853     0.2052
 39922 OH2         -8.9990    -3.9040    34.3970 O.3    7004  TIP6854    -0.4105
 39923 H1          -9.1310    -3.2590    33.7020 H      7004  TIP6854     0.2052
 39924 H2          -8.3670    -3.4950    34.9880 H      7004  TIP6854     0.2052
 39925 OH2        -30.8050    16.5870    39.9770 O.3    7005  TIP6855    -0.4105
 39926 H1         -30.4170    16.1840    39.2000 H      7005  TIP6855     0.2052
 39927 H2         -30.5620    16.0040    40.6960 H      7005  TIP6855     0.2052
 39928 OH2         24.5820   -22.2310   -37.4540 O.3    7006  TIP6856    -0.4105
 39929 H1          23.7150   -22.4960   -37.1480 H      7006  TIP6856     0.2052
 39930 H2          25.1820   -22.5420   -36.7760 H      7006  TIP6856     0.2052
 39931 OH2        -11.7150    -0.0890   -48.0090 O.3    7007  TIP6857    -0.4105
 39932 H1         -11.0360     0.1770   -48.6290 H      7007  TIP6857     0.2052
 39933 H2         -12.3990     0.5750   -48.1010 H      7007  TIP6857     0.2052
 39934 OH2         11.9470   -18.5590    37.6850 O.3    7008  TIP6858    -0.4105
 39935 H1          11.5310   -18.5060    38.5450 H      7008  TIP6858     0.2052
 39936 H2          12.8770   -18.6840    37.8750 H      7008  TIP6858     0.2052
 39937 OH2        -19.0630    -3.0720   -13.1700 O.3    7009  TIP6859    -0.4105
 39938 H1         -19.2360    -3.5880   -13.9580 H      7009  TIP6859     0.2052
 39939 H2         -18.8480    -2.1990   -13.4970 H      7009  TIP6859     0.2052
 39940 OH2         25.5370   -19.8890   -26.5210 O.3    7010  TIP6860    -0.4105
 39941 H1          25.9930   -19.6370   -27.3240 H      7010  TIP6860     0.2052
 39942 H2          24.9560   -19.1520   -26.3340 H      7010  TIP6860     0.2052
 39943 OH2         32.8990    -6.7010    52.8010 O.3    7011  TIP6861    -0.4105
 39944 H1          32.5130    -6.7880    53.6720 H      7011  TIP6861     0.2052
 39945 H2          33.1780    -5.7860    52.7530 H      7011  TIP6861     0.2052
 39946 OH2         14.4460    19.6310    31.2890 O.3    7012  TIP6862    -0.4105
 39947 H1          14.9690    20.2060    31.8470 H      7012  TIP6862     0.2052
 39948 H2          13.8930    19.1420    31.8980 H      7012  TIP6862     0.2052
 39949 OH2         -6.1120    29.3250    41.5180 O.3    7013  TIP6863    -0.4105
 39950 H1          -6.9970    29.6020    41.7550 H      7013  TIP6863     0.2052
 39951 H2          -6.1920    29.0110    40.6170 H      7013  TIP6863     0.2052
 39952 OH2         10.4750    11.6550    32.7250 O.3    7014  TIP6864    -0.4105
 39953 H1           9.6110    11.8580    33.0840 H      7014  TIP6864     0.2052
 39954 H2          10.6730    12.3910    32.1460 H      7014  TIP6864     0.2052
 39955 OH2         10.4770   -11.7790    21.8210 O.3    7015  TIP6865    -0.4105
 39956 H1          11.2670   -11.2570    21.6830 H      7015  TIP6865     0.2052
 39957 H2          10.5610   -12.5100    21.2090 H      7015  TIP6865     0.2052
 39958 OH2          4.3850     4.5010    39.4700 O.3    7016  TIP6866    -0.4105
 39959 H1           5.1990     4.9550    39.2530 H      7016  TIP6866     0.2052
 39960 H2           3.7850     5.1970    39.7380 H      7016  TIP6866     0.2052
 39961 OH2          2.8990   -12.4920   -42.0980 O.3    7017  TIP6867    -0.4105
 39962 H1           3.0460   -11.6610   -42.5500 H      7017  TIP6867     0.2052
 39963 H2           2.2060   -12.3020   -41.4650 H      7017  TIP6867     0.2052
 39964 OH2         14.8610   -26.9290    34.2570 O.3    7018  TIP6868    -0.4105
 39965 H1          15.7000   -26.9090    33.7960 H      7018  TIP6868     0.2052
 39966 H2          14.8090   -26.0800    34.6960 H      7018  TIP6868     0.2052
 39967 OH2        -10.0860    18.5650    46.4110 O.3    7019  TIP6869    -0.4105
 39968 H1          -9.5620    17.7660    46.4740 H      7019  TIP6869     0.2052
 39969 H2         -10.1460    18.8840    47.3120 H      7019  TIP6869     0.2052
 39970 OH2         24.6440   -13.8200   -35.5980 O.3    7020  TIP6870    -0.4105
 39971 H1          24.5590   -14.5160   -34.9470 H      7020  TIP6870     0.2052
 39972 H2          25.5860   -13.6580   -35.6560 H      7020  TIP6870     0.2052
 39973 OH2         24.9740    -6.4910    39.3580 O.3    7021  TIP6871    -0.4105
 39974 H1          25.1120    -5.6790    39.8460 H      7021  TIP6871     0.2052
 39975 H2          25.7210    -6.5420    38.7610 H      7021  TIP6871     0.2052
 39976 OH2        -19.6660    -4.2910    49.7150 O.3    7022  TIP6872    -0.4105
 39977 H1         -19.5380    -3.7650    50.5040 H      7022  TIP6872     0.2052
 39978 H2         -19.6850    -3.6530    49.0020 H      7022  TIP6872     0.2052
 39979 OH2         -0.8200   -24.6320   -28.5810 O.3    7023  TIP6873    -0.4105
 39980 H1          -1.4910   -24.2400   -28.0220 H      7023  TIP6873     0.2052
 39981 H2          -0.0660   -24.7500   -28.0030 H      7023  TIP6873     0.2052
 39982 OH2         17.3830   -11.8130   -45.7240 O.3    7024  TIP6874    -0.4105
 39983 H1          17.2130   -12.5240   -45.1060 H      7024  TIP6874     0.2052
 39984 H2          17.4810   -11.0350   -45.1750 H      7024  TIP6874     0.2052
 39985 OH2         -6.9530   -28.9330   -51.8770 O.3    7025  TIP6875    -0.4105
 39986 H1          -6.9410   -29.0200   -52.8300 H      7025  TIP6875     0.2052
 39987 H2          -7.8500   -29.1530   -51.6270 H      7025  TIP6875     0.2052
 39988 OH2         23.7070    30.8840   -38.9500 O.3    7026  TIP6876    -0.4105
 39989 H1          24.1790    30.5480   -38.1890 H      7026  TIP6876     0.2052
 39990 H2          24.1580    31.6970   -39.1730 H      7026  TIP6876     0.2052
 39991 OH2          5.4590    21.0680   -44.6680 O.3    7027  TIP6877    -0.4105
 39992 H1           6.0620    21.1550   -43.9300 H      7027  TIP6877     0.2052
 39993 H2           4.6010    20.9370   -44.2630 H      7027  TIP6877     0.2052
 39994 OH2        -30.4400    -7.4970    39.7150 O.3    7028  TIP6878    -0.4105
 39995 H1         -31.2540    -7.1520    39.3490 H      7028  TIP6878     0.2052
 39996 H2         -30.7210    -8.1730    40.3320 H      7028  TIP6878     0.2052
 39997 OH2         -7.2450   -24.7520    42.1940 O.3    7029  TIP6879    -0.4105
 39998 H1          -7.7330   -25.5740    42.2390 H      7029  TIP6879     0.2052
 39999 H2          -6.5360   -24.8590    42.8280 H      7029  TIP6879     0.2052
 40000 OH2         22.4740   -31.6400   -48.4420 O.3    7030  TIP6880    -0.4105
 40001 H1          22.2800   -31.2700   -49.3030 H      7030  TIP6880     0.2052
 40002 H2          23.1690   -32.2780   -48.6050 H      7030  TIP6880     0.2052
 40003 OH2         26.2930    26.7400   -17.3620 O.3    7031  TIP6881    -0.4105
 40004 H1          26.1950    27.0520   -18.2620 H      7031  TIP6881     0.2052
 40005 H2          26.9330    26.0310   -17.4230 H      7031  TIP6881     0.2052
 40006 OH2         15.6130    -9.5290    31.3680 O.3    7032  TIP6882    -0.4105
 40007 H1          15.7930    -8.7300    30.8720 H      7032  TIP6882     0.2052
 40008 H2          16.2890   -10.1450    31.0840 H      7032  TIP6882     0.2052
 40009 OH2          1.0010     8.5880   -34.0980 O.3    7033  TIP6883    -0.4105
 40010 H1           0.5050     9.1860   -33.5390 H      7033  TIP6883     0.2052
 40011 H2           1.5950     8.1370   -33.4990 H      7033  TIP6883     0.2052
 40012 OH2        -20.7170   -16.6570   -22.3510 O.3    7034  TIP6884    -0.4105
 40013 H1         -21.2700   -15.8760   -22.3540 H      7034  TIP6884     0.2052
 40014 H2         -21.3050   -17.3690   -22.6020 H      7034  TIP6884     0.2052
 40015 OH2        -15.5510   -21.2910    38.4960 O.3    7035  TIP6885    -0.4105
 40016 H1         -15.2980   -21.6410    39.3500 H      7035  TIP6885     0.2052
 40017 H2         -16.5060   -21.2390    38.5310 H      7035  TIP6885     0.2052
 40018 OH2         18.6080    26.5580    51.5540 O.3    7036  TIP6886    -0.4105
 40019 H1          19.4580    26.6090    51.1150 H      7036  TIP6886     0.2052
 40020 H2          18.6840    27.1590    52.2950 H      7036  TIP6886     0.2052
 40021 OH2         -0.6320   -11.1230    51.0180 O.3    7037  TIP6887    -0.4105
 40022 H1           0.1830   -10.7980    51.4010 H      7037  TIP6887     0.2052
 40023 H2          -0.4600   -12.0470    50.8370 H      7037  TIP6887     0.2052
 40024 OH2        -20.8010   -16.6530   -43.0760 O.3    7038  TIP6888    -0.4105
 40025 H1         -20.0040   -16.2710   -43.4430 H      7038  TIP6888     0.2052
 40026 H2         -20.9840   -16.1260   -42.2980 H      7038  TIP6888     0.2052
 40027 OH2         16.0900    32.3780    18.9520 O.3    7039  TIP6889    -0.4105
 40028 H1          16.4620    32.6980    18.1300 H      7039  TIP6889     0.2052
 40029 H2          15.2720    31.9520    18.6950 H      7039  TIP6889     0.2052
 40030 OH2         17.1010     4.9740    48.0390 O.3    7040  TIP6890    -0.4105
 40031 H1          16.1880     4.8220    47.7950 H      7040  TIP6890     0.2052
 40032 H2          17.0520     5.4480    48.8700 H      7040  TIP6890     0.2052
 40033 OH2        -18.9640    20.9220   -25.4430 O.3    7041  TIP6891    -0.4105
 40034 H1         -19.3050    20.1530   -24.9860 H      7041  TIP6891     0.2052
 40035 H2         -18.0710    21.0200   -25.1130 H      7041  TIP6891     0.2052
 40036 OH2        -17.5740    -1.3830   -31.3630 O.3    7042  TIP6892    -0.4105
 40037 H1         -17.6580    -0.4900   -31.0290 H      7042  TIP6892     0.2052
 40038 H2         -16.6470    -1.5940   -31.2520 H      7042  TIP6892     0.2052
 40039 OH2        -15.4030   -15.9270    23.4370 O.3    7043  TIP6893    -0.4105
 40040 H1         -15.5180   -15.0770    23.0110 H      7043  TIP6893     0.2052
 40041 H2         -15.5420   -16.5660    22.7380 H      7043  TIP6893     0.2052
 40042 OH2         -6.2560    -6.0150    50.0980 O.3    7044  TIP6894    -0.4105
 40043 H1          -5.7850    -6.8240    50.3000 H      7044  TIP6894     0.2052
 40044 H2          -5.5730    -5.3480    50.0340 H      7044  TIP6894     0.2052
 40045 OH2         25.2540     3.0090    45.0610 O.3    7045  TIP6895    -0.4105
 40046 H1          24.7700     3.6240    44.5110 H      7045  TIP6895     0.2052
 40047 H2          25.2410     3.4050    45.9330 H      7045  TIP6895     0.2052
 40048 OH2         10.6550    -5.8530   -30.2920 O.3    7046  TIP6896    -0.4105
 40049 H1           9.9610    -5.5030   -29.7330 H      7046  TIP6896     0.2052
 40050 H2          10.3390    -6.7180   -30.5530 H      7046  TIP6896     0.2052
 40051 OH2        -22.0420   -18.9680    43.4980 O.3    7047  TIP6897    -0.4105
 40052 H1         -22.9680   -19.1440    43.3280 H      7047  TIP6897     0.2052
 40053 H2         -21.8060   -18.2900    42.8640 H      7047  TIP6897     0.2052
 40054 OH2         31.5100   -32.4640    30.7020 O.3    7048  TIP6898    -0.4105
 40055 H1          31.3620   -31.7570    31.3300 H      7048  TIP6898     0.2052
 40056 H2          30.6390   -32.8230    30.5340 H      7048  TIP6898     0.2052
 40057 OH2          0.9650    -0.5970   -16.8240 O.3    7049  TIP6899    -0.4105
 40058 H1           1.6570    -0.7690   -17.4630 H      7049  TIP6899     0.2052
 40059 H2           1.4240    -0.5250   -15.9870 H      7049  TIP6899     0.2052
 40060 OH2         11.8530    11.0690   -35.0800 O.3    7050  TIP6900    -0.4105
 40061 H1          11.2430    11.5180   -34.4950 H      7050  TIP6900     0.2052
 40062 H2          11.7610    10.1430   -34.8570 H      7050  TIP6900     0.2052
 40063 OH2          9.1510   -30.2610    38.5070 O.3    7051  TIP6901    -0.4105
 40064 H1           8.4450   -30.8350    38.8050 H      7051  TIP6901     0.2052
 40065 H2           8.7240   -29.6440    37.9140 H      7051  TIP6901     0.2052
 40066 OH2         23.3210    28.7840   -40.7710 O.3    7052  TIP6902    -0.4105
 40067 H1          23.4830    29.5240   -40.1860 H      7052  TIP6902     0.2052
 40068 H2          23.5780    28.0150   -40.2630 H      7052  TIP6902     0.2052
 40069 OH2         -8.5160    23.1860   -48.9300 O.3    7053  TIP6903    -0.4105
 40070 H1          -9.2390    23.0340   -48.3220 H      7053  TIP6903     0.2052
 40071 H2          -8.6360    24.0890   -49.2240 H      7053  TIP6903     0.2052
 40072 OH2         20.9970     0.4200   -51.4270 O.3    7054  TIP6904    -0.4105
 40073 H1          20.7410     0.5180   -50.5100 H      7054  TIP6904     0.2052
 40074 H2          21.5080    -0.3890   -51.4490 H      7054  TIP6904     0.2052
 40075 OH2        -10.4870    23.5820    23.7780 O.3    7055  TIP6905    -0.4105
 40076 H1         -10.5560    22.6450    23.9580 H      7055  TIP6905     0.2052
 40077 H2         -10.6580    23.6600    22.8390 H      7055  TIP6905     0.2052
 40078 OH2         -3.9020     3.6030    42.2220 O.3    7056  TIP6906    -0.4105
 40079 H1          -4.3110     4.3390    42.6770 H      7056  TIP6906     0.2052
 40080 H2          -4.4680     3.4440    41.4670 H      7056  TIP6906     0.2052
 40081 OH2         22.3880    28.1620    46.3040 O.3    7057  TIP6907    -0.4105
 40082 H1          22.0960    29.0730    46.3520 H      7057  TIP6907     0.2052
 40083 H2          21.6300    27.6520    46.5910 H      7057  TIP6907     0.2052
 40084 OH2        -27.9420   -20.8580   -38.9850 O.3    7058  TIP6908    -0.4105
 40085 H1         -27.3270   -20.1980   -38.6630 H      7058  TIP6908     0.2052
 40086 H2         -28.1500   -20.5770   -39.8760 H      7058  TIP6908     0.2052
 40087 OH2        -27.7840     2.1540   -36.2780 O.3    7059  TIP6909    -0.4105
 40088 H1         -27.3280     2.1370   -37.1190 H      7059  TIP6909     0.2052
 40089 H2         -28.5100     2.7640   -36.4120 H      7059  TIP6909     0.2052
 40090 OH2         29.8130   -17.3860    41.7440 O.3    7060  TIP6910    -0.4105
 40091 H1          29.0480   -17.1910    42.2860 H      7060  TIP6910     0.2052
 40092 H2          29.5380   -17.1680    40.8530 H      7060  TIP6910     0.2052
 40093 OH2        -32.0080   -20.0800   -37.3360 O.3    7061  TIP6911    -0.4105
 40094 H1         -32.3190   -19.4720   -36.6650 H      7061  TIP6911     0.2052
 40095 H2         -31.1090   -19.8040   -37.5120 H      7061  TIP6911     0.2052
 40096 OH2          9.1450    -4.0730   -28.6860 O.3    7062  TIP6912    -0.4105
 40097 H1           9.6520    -4.6010   -28.0690 H      7062  TIP6912     0.2052
 40098 H2           8.3320    -3.8740   -28.2210 H      7062  TIP6912     0.2052
 40099 OH2         19.5560   -12.1200    33.7230 O.3    7063  TIP6913    -0.4105
 40100 H1          19.3990   -12.8410    34.3320 H      7063  TIP6913     0.2052
 40101 H2          18.8440   -11.5030    33.8930 H      7063  TIP6913     0.2052
 40102 OH2         23.8480    -2.1810   -11.6070 O.3    7064  TIP6914    -0.4105
 40103 H1          24.6450    -1.6630   -11.4970 H      7064  TIP6914     0.2052
 40104 H2          23.1430    -1.5340   -11.6360 H      7064  TIP6914     0.2052
 40105 OH2        -14.6340     1.2900    46.7230 O.3    7065  TIP6915    -0.4105
 40106 H1         -14.9950     0.6670    46.0920 H      7065  TIP6915     0.2052
 40107 H2         -14.6910     0.8390    47.5650 H      7065  TIP6915     0.2052
 40108 OH2        -23.9450   -22.8920    42.7400 O.3    7066  TIP6916    -0.4105
 40109 H1         -23.6330   -23.3240    43.5350 H      7066  TIP6916     0.2052
 40110 H2         -24.5790   -23.5040    42.3670 H      7066  TIP6916     0.2052
 40111 OH2          9.9080    18.1980   -31.9850 O.3    7067  TIP6917    -0.4105
 40112 H1          10.1990    17.2930   -32.0990 H      7067  TIP6917     0.2052
 40113 H2           9.2160    18.3110   -32.6360 H      7067  TIP6917     0.2052
 40114 OH2         -2.4280   -27.6380   -36.4150 O.3    7068  TIP6918    -0.4105
 40115 H1          -1.6480   -27.5420   -35.8690 H      7068  TIP6918     0.2052
 40116 H2          -3.1230   -27.8770   -35.8020 H      7068  TIP6918     0.2052
 40117 OH2         26.0350    11.4190   -15.7800 O.3    7069  TIP6919    -0.4105
 40118 H1          25.3090    12.0230   -15.9370 H      7069  TIP6919     0.2052
 40119 H2          26.6410    11.9100   -15.2260 H      7069  TIP6919     0.2052
 40120 OH2         -5.9280    27.8200   -21.1730 O.3    7070  TIP6920    -0.4105
 40121 H1          -5.6250    26.9480   -21.4260 H      7070  TIP6920     0.2052
 40122 H2          -6.1280    28.2550   -22.0020 H      7070  TIP6920     0.2052
 40123 OH2          8.1640    16.1130   -49.2560 O.3    7071  TIP6921    -0.4105
 40124 H1           7.4520    16.6530   -49.5980 H      7071  TIP6921     0.2052
 40125 H2           8.0600    16.1520   -48.3050 H      7071  TIP6921     0.2052
 40126 OH2        -27.7790    -4.9900    38.4730 O.3    7072  TIP6922    -0.4105
 40127 H1         -27.2690    -5.7500    38.1920 H      7072  TIP6922     0.2052
 40128 H2         -28.3830    -4.8250    37.7490 H      7072  TIP6922     0.2052
 40129 OH2        -28.7900   -28.0800   -26.3030 O.3    7073  TIP6923    -0.4105
 40130 H1         -29.2550   -28.6420   -25.6830 H      7073  TIP6923     0.2052
 40131 H2         -28.2030   -27.5560   -25.7570 H      7073  TIP6923     0.2052
 40132 OH2         29.1530    32.2490    29.8710 O.3    7074  TIP6924    -0.4105
 40133 H1          28.2460    32.4810    30.0700 H      7074  TIP6924     0.2052
 40134 H2          29.0930    31.6920    29.0950 H      7074  TIP6924     0.2052
 40135 OH2         10.4990    -6.5370   -24.3140 O.3    7075  TIP6925    -0.4105
 40136 H1           9.8850    -5.8180   -24.4670 H      7075  TIP6925     0.2052
 40137 H2          10.4760    -7.0490   -25.1220 H      7075  TIP6925     0.2052
 40138 OH2        -24.2590   -16.2650    44.6510 O.3    7076  TIP6926    -0.4105
 40139 H1         -24.7540   -17.0150    44.9800 H      7076  TIP6926     0.2052
 40140 H2         -24.1660   -16.4310    43.7130 H      7076  TIP6926     0.2052
 40141 OH2         16.2930    12.1000   -48.9590 O.3    7077  TIP6927    -0.4105
 40142 H1          17.2050    12.1850   -48.6820 H      7077  TIP6927     0.2052
 40143 H2          16.1070    11.1640   -48.8910 H      7077  TIP6927     0.2052
 40144 OH2          2.3820    26.2210    33.8070 O.3    7078  TIP6928    -0.4105
 40145 H1           2.0970    25.3420    33.5560 H      7078  TIP6928     0.2052
 40146 H2           1.5860    26.6520    34.1190 H      7078  TIP6928     0.2052
 40147 OH2        -28.2840    -8.2580    14.6530 O.3    7079  TIP6929    -0.4105
 40148 H1         -28.3690    -7.6140    15.3550 H      7079  TIP6929     0.2052
 40149 H2         -29.1820    -8.5390    14.4750 H      7079  TIP6929     0.2052
 40150 OH2        -24.6750    19.0510    38.2420 O.3    7080  TIP6930    -0.4105
 40151 H1         -25.3620    18.5990    38.7330 H      7080  TIP6930     0.2052
 40152 H2         -24.8120    18.7800    37.3340 H      7080  TIP6930     0.2052
 40153 OH2         16.3570   -30.4040   -38.4800 O.3    7081  TIP6931    -0.4105
 40154 H1          16.7420   -29.5490   -38.2860 H      7081  TIP6931     0.2052
 40155 H2          16.5600   -30.5540   -39.4030 H      7081  TIP6931     0.2052
 40156 OH2         28.1730    -5.6080    25.3750 O.3    7082  TIP6932    -0.4105
 40157 H1          27.8770    -6.3750    24.8860 H      7082  TIP6932     0.2052
 40158 H2          29.0300    -5.4020    25.0030 H      7082  TIP6932     0.2052
 40159 OH2        -12.8470    16.4980   -31.0470 O.3    7083  TIP6933    -0.4105
 40160 H1         -13.4790    17.1980   -30.8800 H      7083  TIP6933     0.2052
 40161 H2         -12.1470    16.6510   -30.4130 H      7083  TIP6933     0.2052
 40162 OH2        -19.9330   -11.6000    38.4490 O.3    7084  TIP6934    -0.4105
 40163 H1         -19.7560   -11.8380    39.3590 H      7084  TIP6934     0.2052
 40164 H2         -20.8870   -11.5690    38.3910 H      7084  TIP6934     0.2052
 40165 OH2        -23.2970     7.1500   -26.4880 O.3    7085  TIP6935    -0.4105
 40166 H1         -22.6890     7.5040   -25.8390 H      7085  TIP6935     0.2052
 40167 H2         -23.7290     6.4230   -26.0400 H      7085  TIP6935     0.2052
 40168 OH2         10.5610    20.0210    28.5880 O.3    7086  TIP6936    -0.4105
 40169 H1          11.2220    20.6560    28.8650 H      7086  TIP6936     0.2052
 40170 H2          10.4870    20.1500    27.6430 H      7086  TIP6936     0.2052
 40171 OH2         20.2200     4.8170    26.3060 O.3    7087  TIP6937    -0.4105
 40172 H1          19.8050     5.6730    26.4150 H      7087  TIP6937     0.2052
 40173 H2          21.1580     5.0060    26.2910 H      7087  TIP6937     0.2052
 40174 OH2         22.1390   -23.1860   -23.8080 O.3    7088  TIP6938    -0.4105
 40175 H1          21.7800   -22.4870   -24.3550 H      7088  TIP6938     0.2052
 40176 H2          22.6580   -22.7290   -23.1450 H      7088  TIP6938     0.2052
 40177 OH2        -28.9100    -2.9260    24.3240 O.3    7089  TIP6939    -0.4105
 40178 H1         -28.2380    -3.5870    24.1560 H      7089  TIP6939     0.2052
 40179 H2         -29.5790    -3.0910    23.6600 H      7089  TIP6939     0.2052
 40180 OH2         30.4490   -27.7360   -44.1930 O.3    7090  TIP6940    -0.4105
 40181 H1          29.8290   -27.0130   -44.2880 H      7090  TIP6940     0.2052
 40182 H2          31.2040   -27.3480   -43.7490 H      7090  TIP6940     0.2052
 40183 OH2          5.5990    13.8570    44.5030 O.3    7091  TIP6941    -0.4105
 40184 H1           5.5190    13.8420    43.5490 H      7091  TIP6941     0.2052
 40185 H2           5.1190    13.0830    44.7960 H      7091  TIP6941     0.2052
 40186 OH2         23.2260    -3.8950    27.7750 O.3    7092  TIP6942    -0.4105
 40187 H1          23.7790    -4.2000    28.4950 H      7092  TIP6942     0.2052
 40188 H2          22.5030    -4.5220    27.7450 H      7092  TIP6942     0.2052
 40189 OH2         29.9380   -17.4560    51.6620 O.3    7093  TIP6943    -0.4105
 40190 H1          30.5470   -16.7490    51.4480 H      7093  TIP6943     0.2052
 40191 H2          30.1960   -18.1770    51.0870 H      7093  TIP6943     0.2052
 40192 OH2         18.9700   -20.7080   -55.2810 O.3    7094  TIP6944    -0.4105
 40193 H1          18.6710   -20.0410   -54.6620 H      7094  TIP6944     0.2052
 40194 H2          18.3110   -21.4000   -55.2230 H      7094  TIP6944     0.2052
 40195 OH2        -23.6480    12.8850   -33.7600 O.3    7095  TIP6945    -0.4105
 40196 H1         -24.0970    13.6170   -34.1840 H      7095  TIP6945     0.2052
 40197 H2         -23.6210    12.2010   -34.4290 H      7095  TIP6945     0.2052
 40198 OH2        -24.7330    -0.0020    43.8420 O.3    7096  TIP6946    -0.4105
 40199 H1         -25.1720    -0.6530    44.3900 H      7096  TIP6946     0.2052
 40200 H2         -24.1780    -0.5160    43.2560 H      7096  TIP6946     0.2052
 40201 OH2        -11.1410    32.9110   -34.5360 O.3    7097  TIP6947    -0.4105
 40202 H1         -12.0200    32.5330   -34.5100 H      7097  TIP6947     0.2052
 40203 H2         -11.0320    33.2020   -35.4410 H      7097  TIP6947     0.2052
 40204 OH2         26.3240   -32.4530   -18.6200 O.3    7098  TIP6948    -0.4105
 40205 H1          26.7610   -31.8840   -17.9860 H      7098  TIP6948     0.2052
 40206 H2          25.8130   -31.8560   -19.1670 H      7098  TIP6948     0.2052
 40207 OH2          0.7720   -31.5040   -40.5910 O.3    7099  TIP6949    -0.4105
 40208 H1          -0.1390   -31.2950   -40.7950 H      7099  TIP6949     0.2052
 40209 H2           1.0140   -30.8790   -39.9070 H      7099  TIP6949     0.2052
 40210 OH2         29.3250    -5.3480    52.2680 O.3    7100  TIP6950    -0.4105
 40211 H1          29.5630    -4.8090    51.5130 H      7100  TIP6950     0.2052
 40212 H2          29.1550    -6.2150    51.9000 H      7100  TIP6950     0.2052
 40213 OH2          1.1090   -27.5580   -27.4370 O.3    7101  TIP6951    -0.4105
 40214 H1           1.4060   -26.8350   -27.9900 H      7101  TIP6951     0.2052
 40215 H2           1.8320   -28.1850   -27.4530 H      7101  TIP6951     0.2052
 40216 OH2         17.0250    21.4760   -49.5100 O.3    7102  TIP6952    -0.4105
 40217 H1          16.2160    21.8230   -49.8840 H      7102  TIP6952     0.2052
 40218 H2          17.0340    20.5550   -49.7700 H      7102  TIP6952     0.2052
 40219 OH2        -16.1770   -29.3900    36.5780 O.3    7103  TIP6953    -0.4105
 40220 H1         -15.8470   -28.9860    35.7750 H      7103  TIP6953     0.2052
 40221 H2         -16.0930   -28.7060    37.2430 H      7103  TIP6953     0.2052
 40222 OH2         -7.8050     5.8980    24.7440 O.3    7104  TIP6954    -0.4105
 40223 H1          -7.0610     5.8670    24.1430 H      7104  TIP6954     0.2052
 40224 H2          -8.5560     6.1040    24.1880 H      7104  TIP6954     0.2052
 40225 OH2         12.1630    20.7870    44.7980 O.3    7105  TIP6955    -0.4105
 40226 H1          12.5030    20.0200    45.2590 H      7105  TIP6955     0.2052
 40227 H2          12.3160    21.5150    45.3990 H      7105  TIP6955     0.2052
 40228 OH2        -16.2670    30.3690   -35.1560 O.3    7106  TIP6956    -0.4105
 40229 H1         -15.8510    30.3160   -36.0170 H      7106  TIP6956     0.2052
 40230 H2         -15.5380    30.4700   -34.5440 H      7106  TIP6956     0.2052
 40231 OH2          8.5130    13.9760   -50.8620 O.3    7107  TIP6957    -0.4105
 40232 H1           8.7160    14.8280   -50.4770 H      7107  TIP6957     0.2052
 40233 H2           8.4610    14.1440   -51.8020 H      7107  TIP6957     0.2052
 40234 OH2        -22.0250     1.5170   -34.5500 O.3    7108  TIP6958    -0.4105
 40235 H1         -21.2010     1.3060   -34.9890 H      7108  TIP6958     0.2052
 40236 H2         -22.6590     1.6100   -35.2620 H      7108  TIP6958     0.2052
 40237 OH2         23.4950    25.7650   -48.1970 O.3    7109  TIP6959    -0.4105
 40238 H1          22.5420    25.7080   -48.1400 H      7109  TIP6959     0.2052
 40239 H2          23.7640    24.9280   -48.5740 H      7109  TIP6959     0.2052
 40240 OH2        -16.3110   -12.9900    41.5980 O.3    7110  TIP6960    -0.4105
 40241 H1         -15.6490   -13.5930    41.2610 H      7110  TIP6960     0.2052
 40242 H2         -16.9300   -13.5510    42.0670 H      7110  TIP6960     0.2052
 40243 OH2        -17.1340    14.9930   -45.1560 O.3    7111  TIP6961    -0.4105
 40244 H1         -17.4260    14.1430   -45.4860 H      7111  TIP6961     0.2052
 40245 H2         -17.7240    15.1830   -44.4270 H      7111  TIP6961     0.2052
 40246 OH2         17.8940    21.3100   -52.6990 O.3    7112  TIP6962    -0.4105
 40247 H1          17.3110    21.7820   -52.1050 H      7112  TIP6962     0.2052
 40248 H2          17.4150    20.5120   -52.9220 H      7112  TIP6962     0.2052
 40249 OH2         -9.5740    25.7410   -25.6940 O.3    7113  TIP6963    -0.4105
 40250 H1          -9.0880    26.1250   -24.9650 H      7113  TIP6963     0.2052
 40251 H2         -10.4260    26.1780   -25.6710 H      7113  TIP6963     0.2052
 40252 OH2        -18.0670    20.5620    46.8180 O.3    7114  TIP6964    -0.4105
 40253 H1         -17.2130    20.3330    46.4510 H      7114  TIP6964     0.2052
 40254 H2         -18.6600    19.8880    46.4850 H      7114  TIP6964     0.2052
 40255 OH2        -27.9590    30.5970   -20.6890 O.3    7115  TIP6965    -0.4105
 40256 H1         -27.4720    29.8640   -21.0650 H      7115  TIP6965     0.2052
 40257 H2         -28.6620    30.1860   -20.1870 H      7115  TIP6965     0.2052
 40258 OH2         32.8130    -1.0270    46.4730 O.3    7116  TIP6966    -0.4105
 40259 H1          32.0960    -1.6150    46.7110 H      7116  TIP6966     0.2052
 40260 H2          33.4560    -1.1380    47.1730 H      7116  TIP6966     0.2052
 40261 OH2         21.8340   -27.9850   -45.2020 O.3    7117  TIP6967    -0.4105
 40262 H1          22.3300   -28.0830   -44.3890 H      7117  TIP6967     0.2052
 40263 H2          22.3420   -28.4710   -45.8520 H      7117  TIP6967     0.2052
 40264 OH2         15.2160    -1.3620   -37.3310 O.3    7118  TIP6968    -0.4105
 40265 H1          15.3490    -2.3100   -37.3670 H      7118  TIP6968     0.2052
 40266 H2          15.8900    -1.0030   -37.9080 H      7118  TIP6968     0.2052
 40267 OH2        -15.2310   -14.2560   -42.3310 O.3    7119  TIP6969    -0.4105
 40268 H1         -14.8650   -15.1240   -42.5040 H      7119  TIP6969     0.2052
 40269 H2         -14.5140   -13.7710   -41.9220 H      7119  TIP6969     0.2052
 40270 OH2         28.5650    30.9850    32.7420 O.3    7120  TIP6970    -0.4105
 40271 H1          28.3770    31.9130    32.8870 H      7120  TIP6970     0.2052
 40272 H2          27.8310    30.6720    32.2130 H      7120  TIP6970     0.2052
 40273 OH2        -14.0760     3.5170    33.6150 O.3    7121  TIP6971    -0.4105
 40274 H1         -13.6690     4.2560    34.0690 H      7121  TIP6971     0.2052
 40275 H2         -14.9450     3.4420    34.0100 H      7121  TIP6971     0.2052
 40276 OH2          4.8890    -2.4290    39.5140 O.3    7122  TIP6972    -0.4105
 40277 H1           5.5050    -1.7620    39.2110 H      7122  TIP6972     0.2052
 40278 H2           4.0760    -1.9500    39.6730 H      7122  TIP6972     0.2052
 40279 OH2         17.4350   -13.1070   -51.8300 O.3    7123  TIP6973    -0.4105
 40280 H1          18.2140   -12.8000   -51.3660 H      7123  TIP6973     0.2052
 40281 H2          17.5230   -14.0600   -51.8450 H      7123  TIP6973     0.2052
 40282 OH2        -18.0780   -15.3110   -43.5720 O.3    7124  TIP6974    -0.4105
 40283 H1         -17.7430   -16.1830   -43.7810 H      7124  TIP6974     0.2052
 40284 H2         -17.6460   -14.7300   -44.1980 H      7124  TIP6974     0.2052
 40285 OH2         16.2130    -4.3120    51.7760 O.3    7125  TIP6975    -0.4105
 40286 H1          16.1650    -4.6330    50.8750 H      7125  TIP6975     0.2052
 40287 H2          15.6450    -4.9020    52.2710 H      7125  TIP6975     0.2052
 40288 OH2        -21.9700    32.4850   -35.2140 O.3    7126  TIP6976    -0.4105
 40289 H1         -22.8800    32.7170   -35.0290 H      7126  TIP6976     0.2052
 40290 H2         -21.4550    33.1300   -34.7300 H      7126  TIP6976     0.2052
 40291 OH2          0.0950   -20.6580    27.6890 O.3    7127  TIP6977    -0.4105
 40292 H1          -0.3980   -21.3120    28.1850 H      7127  TIP6977     0.2052
 40293 H2          -0.2700   -20.7030    26.8050 H      7127  TIP6977     0.2052
 40294 OH2         28.8560   -22.2030    31.7990 O.3    7128  TIP6978    -0.4105
 40295 H1          29.6950   -22.5210    31.4660 H      7128  TIP6978     0.2052
 40296 H2          28.2010   -22.7320    31.3440 H      7128  TIP6978     0.2052
 40297 OH2         31.7740   -19.1810    45.7550 O.3    7129  TIP6979    -0.4105
 40298 H1          32.5190   -18.9230    46.2990 H      7129  TIP6979     0.2052
 40299 H2          31.7330   -20.1330    45.8400 H      7129  TIP6979     0.2052
 40300 OH2          5.7310   -14.2180    49.4190 O.3    7130  TIP6980    -0.4105
 40301 H1           4.8310   -13.9330    49.2590 H      7130  TIP6980     0.2052
 40302 H2           6.1460   -14.2000    48.5560 H      7130  TIP6980     0.2052
 40303 OH2         30.5820     1.1840    29.9280 O.3    7131  TIP6981    -0.4105
 40304 H1          30.2320     1.9510    29.4750 H      7131  TIP6981     0.2052
 40305 H2          31.4520     1.0580    29.5480 H      7131  TIP6981     0.2052
 40306 OH2         -8.6750    10.0560    49.0050 O.3    7132  TIP6982    -0.4105
 40307 H1          -8.8920     9.7620    48.1200 H      7132  TIP6982     0.2052
 40308 H2          -8.3290     9.2760    49.4390 H      7132  TIP6982     0.2052
 40309 OH2         31.2810    18.3990    29.2860 O.3    7133  TIP6983    -0.4105
 40310 H1          32.0480    17.9420    29.6320 H      7133  TIP6983     0.2052
 40311 H2          31.0890    19.0720    29.9390 H      7133  TIP6983     0.2052
 40312 OH2         -1.6140   -31.8530    16.5240 O.3    7134  TIP6984    -0.4105
 40313 H1          -1.0780   -32.2860    15.8600 H      7134  TIP6984     0.2052
 40314 H2          -1.7060   -30.9540    16.2090 H      7134  TIP6984     0.2052
 40315 OH2         18.3940     0.6180    34.5550 O.3    7135  TIP6985    -0.4105
 40316 H1          17.9130     0.7100    33.7320 H      7135  TIP6985     0.2052
 40317 H2          18.6770     1.5070    34.7680 H      7135  TIP6985     0.2052
 40318 OH2         27.8170    -4.6210    35.7610 O.3    7136  TIP6986    -0.4105
 40319 H1          27.7940    -3.7950    35.2770 H      7136  TIP6986     0.2052
 40320 H2          27.9970    -5.2850    35.0950 H      7136  TIP6986     0.2052
 40321 OH2          0.3190    31.0310    35.2480 O.3    7137  TIP6987    -0.4105
 40322 H1          -0.5040    31.3670    35.6040 H      7137  TIP6987     0.2052
 40323 H2           0.7840    31.8100    34.9430 H      7137  TIP6987     0.2052
 40324 OH2          1.6630   -17.8060   -35.9470 O.3    7138  TIP6988    -0.4105
 40325 H1           1.6350   -16.9630   -35.4940 H      7138  TIP6988     0.2052
 40326 H2           2.5350   -17.8390   -36.3400 H      7138  TIP6988     0.2052
 40327 OH2          5.6180   -30.1400   -27.8930 O.3    7139  TIP6989    -0.4105
 40328 H1           5.5550   -30.9630   -27.4080 H      7139  TIP6989     0.2052
 40329 H2           5.2630   -29.4810   -27.2950 H      7139  TIP6989     0.2052
 40330 OH2         32.4910   -10.5580    27.0550 O.3    7140  TIP6990    -0.4105
 40331 H1          31.7320   -10.0800    27.3900 H      7140  TIP6990     0.2052
 40332 H2          33.2070   -10.3140    27.6410 H      7140  TIP6990     0.2052
 40333 OH2        -27.1440    21.8710    42.0750 O.3    7141  TIP6991    -0.4105
 40334 H1         -26.7000    21.0890    42.4040 H      7141  TIP6991     0.2052
 40335 H2         -28.0700    21.7160    42.2570 H      7141  TIP6991     0.2052
 40336 OH2         27.2890    14.1880    36.8830 O.3    7142  TIP6992    -0.4105
 40337 H1          26.6970    13.8200    37.5400 H      7142  TIP6992     0.2052
 40338 H2          27.7790    14.8630    37.3520 H      7142  TIP6992     0.2052
 40339 OH2          8.8340     2.8480   -46.0270 O.3    7143  TIP6993    -0.4105
 40340 H1           9.7730     3.0280   -46.0770 H      7143  TIP6993     0.2052
 40341 H2           8.6430     2.8310   -45.0890 H      7143  TIP6993     0.2052
 40342 OH2        -32.4040    24.6430    26.2060 O.3    7144  TIP6994    -0.4105
 40343 H1         -33.1780    24.9280    26.6910 H      7144  TIP6994     0.2052
 40344 H2         -32.6430    24.7570    25.2860 H      7144  TIP6994     0.2052
 40345 OH2         26.6730   -23.8590    25.2880 O.3    7145  TIP6995    -0.4105
 40346 H1          25.9330   -24.2730    24.8430 H      7145  TIP6995     0.2052
 40347 H2          27.3350   -24.5480    25.3440 H      7145  TIP6995     0.2052
 40348 OH2         26.5300   -21.7410    40.4070 O.3    7146  TIP6996    -0.4105
 40349 H1          25.5950   -21.7300    40.2010 H      7146  TIP6996     0.2052
 40350 H2          26.6430   -21.0360    41.0450 H      7146  TIP6996     0.2052
 40351 OH2         -9.1160     1.9560   -27.5530 O.3    7147  TIP6997    -0.4105
 40352 H1          -9.7880     1.7940   -28.2160 H      7147  TIP6997     0.2052
 40353 H2          -9.5930     2.3430   -26.8190 H      7147  TIP6997     0.2052
 40354 OH2        -23.1120    16.9640   -39.8390 O.3    7148  TIP6998    -0.4105
 40355 H1         -22.8240    17.7430   -40.3150 H      7148  TIP6998     0.2052
 40356 H2         -22.7570    17.0760   -38.9570 H      7148  TIP6998     0.2052
 40357 OH2         27.4950    27.9440    27.8880 O.3    7149  TIP6999    -0.4105
 40358 H1          27.2300    27.0260    27.9500 H      7149  TIP6999     0.2052
 40359 H2          28.2160    28.0290    28.5120 H      7149  TIP6999     0.2052
 40360 OH2         25.1780   -26.2410    55.1430 O.3    7150  TIP7000    -0.4105
 40361 H1          24.2260   -26.2710    55.2340 H      7150  TIP7000     0.2052
 40362 H2          25.3810   -26.9310    54.5100 H      7150  TIP7000     0.2052
 40363 OH2        -24.1290     9.8260    20.2510 O.3    7151  TIP7001    -0.4105
 40364 H1         -24.3930     9.3530    19.4620 H      7151  TIP7001     0.2052
 40365 H2         -24.8820    10.3770    20.4640 H      7151  TIP7001     0.2052
 40366 OH2         32.1650    30.5450    36.5930 O.3    7152  TIP7002    -0.4105
 40367 H1          31.7360    30.4920    35.7400 H      7152  TIP7002     0.2052
 40368 H2          32.4580    29.6510    36.7700 H      7152  TIP7002     0.2052
 40369 OH2        -12.7920    -2.5770   -21.9510 O.3    7153  TIP7003    -0.4105
 40370 H1         -13.7220    -2.7970   -21.8960 H      7153  TIP7003     0.2052
 40371 H2         -12.5000    -2.5360   -21.0410 H      7153  TIP7003     0.2052
 40372 OH2         27.3560    22.1590   -54.4310 O.3    7154  TIP7004    -0.4105
 40373 H1          26.5790    21.9100   -53.9310 H      7154  TIP7004     0.2052
 40374 H2          27.8910    22.6550   -53.8110 H      7154  TIP7004     0.2052
 40375 OH2         21.7100     9.0740   -52.0620 O.3    7155  TIP7005    -0.4105
 40376 H1          20.8630     8.6300   -52.0430 H      7155  TIP7005     0.2052
 40377 H2          21.4980    10.0010   -51.9540 H      7155  TIP7005     0.2052
 40378 OH2        -25.2540    -2.6210    44.9010 O.3    7156  TIP7006    -0.4105
 40379 H1         -26.0520    -2.5030    45.4160 H      7156  TIP7006     0.2052
 40380 H2         -25.4430    -3.3650    44.3300 H      7156  TIP7006     0.2052
 40381 OH2         23.9560   -16.2020    22.3330 O.3    7157  TIP7007    -0.4105
 40382 H1          24.8840   -16.0630    22.5230 H      7157  TIP7007     0.2052
 40383 H2          23.9120   -16.2520    21.3780 H      7157  TIP7007     0.2052
 40384 OH2        -32.4660   -22.5830   -30.3850 O.3    7158  TIP7008    -0.4105
 40385 H1         -31.9300   -22.7860   -29.6180 H      7158  TIP7008     0.2052
 40386 H2         -32.5430   -23.4160   -30.8510 H      7158  TIP7008     0.2052
 40387 OH2        -19.3850    28.0970   -44.5480 O.3    7159  TIP7009    -0.4105
 40388 H1         -18.8220    27.3240   -44.5080 H      7159  TIP7009     0.2052
 40389 H2         -20.2370    27.7600   -44.8250 H      7159  TIP7009     0.2052
 40390 OH2        -19.7630     5.6770    26.9390 O.3    7160  TIP7010    -0.4105
 40391 H1         -19.6500     5.1260    27.7140 H      7160  TIP7010     0.2052
 40392 H2         -20.6960     5.6160    26.7360 H      7160  TIP7010     0.2052
 40393 OH2         -7.7300    -7.9670    26.7620 O.3    7161  TIP7011    -0.4105
 40394 H1          -7.9830    -7.4400    26.0040 H      7161  TIP7011     0.2052
 40395 H2          -8.5010    -8.5010    26.9510 H      7161  TIP7011     0.2052
 40396 OH2        -32.1390   -13.0640   -19.2990 O.3    7162  TIP7012    -0.4105
 40397 H1         -31.5970   -12.2990   -19.1040 H      7162  TIP7012     0.2052
 40398 H2         -32.4530   -13.3600   -18.4450 H      7162  TIP7012     0.2052
 40399 OH2        -23.4560     8.1610    22.5250 O.3    7163  TIP7013    -0.4105
 40400 H1         -23.1070     8.6100    23.2950 H      7163  TIP7013     0.2052
 40401 H2         -23.6090     8.8590    21.8880 H      7163  TIP7013     0.2052
 40402 OH2          2.6640     2.5660   -38.6840 O.3    7164  TIP7014    -0.4105
 40403 H1           2.2970     1.9290   -38.0720 H      7164  TIP7014     0.2052
 40404 H2           1.9070     2.9020   -39.1640 H      7164  TIP7014     0.2052
 40405 OH2        -19.8280    26.2220    32.8470 O.3    7165  TIP7015    -0.4105
 40406 H1         -18.8930    26.3950    32.7390 H      7165  TIP7015     0.2052
 40407 H2         -20.2570    27.0210    32.5420 H      7165  TIP7015     0.2052
 40408 OH2         30.2470    28.8430   -47.0870 O.3    7166  TIP7016    -0.4105
 40409 H1          30.5350    29.7540   -47.1360 H      7166  TIP7016     0.2052
 40410 H2          30.6970    28.4090   -47.8120 H      7166  TIP7016     0.2052
 40411 OH2        -27.2950   -15.7300   -51.6300 O.3    7167  TIP7017    -0.4105
 40412 H1         -27.5140   -16.5330   -51.1560 H      7167  TIP7017     0.2052
 40413 H2         -26.3760   -15.8390   -51.8740 H      7167  TIP7017     0.2052
 40414 OH2         22.7990    14.7650    50.7960 O.3    7168  TIP7018    -0.4105
 40415 H1          23.4080    14.8600    50.0640 H      7168  TIP7018     0.2052
 40416 H2          21.9640    15.0880    50.4570 H      7168  TIP7018     0.2052
 40417 OH2         21.7750   -11.4630    40.1540 O.3    7169  TIP7019    -0.4105
 40418 H1          21.3220   -11.8280    40.9140 H      7169  TIP7019     0.2052
 40419 H2          22.6020   -11.1320    40.5030 H      7169  TIP7019     0.2052
 40420 OH2          8.0370    15.6690    44.8750 O.3    7170  TIP7020    -0.4105
 40421 H1           7.4190    15.1210    45.3570 H      7170  TIP7020     0.2052
 40422 H2           7.5760    16.4990    44.7500 H      7170  TIP7020     0.2052
 40423 OH2        -22.7030    25.6000    30.8930 O.3    7171  TIP7021    -0.4105
 40424 H1         -23.1190    26.4290    30.6570 H      7171  TIP7021     0.2052
 40425 H2         -23.4290    24.9800    30.9700 H      7171  TIP7021     0.2052
 40426 OH2         32.0090    -0.5500   -24.1000 O.3    7172  TIP7022    -0.4105
 40427 H1          31.8270     0.3480   -24.3770 H      7172  TIP7022     0.2052
 40428 H2          32.6160    -0.4560   -23.3660 H      7172  TIP7022     0.2052
 40429 OH2         17.5820    -4.8780   -54.1680 O.3    7173  TIP7023    -0.4105
 40430 H1          16.8580    -5.0030   -54.7820 H      7173  TIP7023     0.2052
 40431 H2          17.5890    -5.6760   -53.6390 H      7173  TIP7023     0.2052
 40432 OH2         19.1960   -32.7220   -26.0660 O.3    7174  TIP7024    -0.4105
 40433 H1          18.7590   -32.3050   -26.8080 H      7174  TIP7024     0.2052
 40434 H2          18.5820   -32.6210   -25.3380 H      7174  TIP7024     0.2052
 40435 OH2         20.3980    -1.8720    32.2990 O.3    7175  TIP7025    -0.4105
 40436 H1          20.4460    -2.4640    33.0490 H      7175  TIP7025     0.2052
 40437 H2          21.0940    -2.1700    31.7130 H      7175  TIP7025     0.2052
 40438 OH2         -1.5880    -3.4930   -34.6200 O.3    7176  TIP7026    -0.4105
 40439 H1          -1.6880    -2.5420   -34.5740 H      7176  TIP7026     0.2052
 40440 H2          -0.7400    -3.6250   -35.0430 H      7176  TIP7026     0.2052
 40441 OH2         27.2060    24.2910    32.9310 O.3    7177  TIP7027    -0.4105
 40442 H1          26.9950    23.5060    33.4370 H      7177  TIP7027     0.2052
 40443 H2          26.3550    24.6520    32.6830 H      7177  TIP7027     0.2052
 40444 OH2         17.6280   -13.6180   -47.9840 O.3    7178  TIP7028    -0.4105
 40445 H1          17.0300   -14.3450   -47.8090 H      7178  TIP7028     0.2052
 40446 H2          17.4890   -13.0120   -47.2560 H      7178  TIP7028     0.2052
 40447 OH2        -20.1350     2.8110   -27.4160 O.3    7179  TIP7029    -0.4105
 40448 H1         -20.9270     3.1750   -27.8110 H      7179  TIP7029     0.2052
 40449 H2         -20.2600     1.8630   -27.4580 H      7179  TIP7029     0.2052
 40450 OH2          7.3600   -24.8650   -34.6450 O.3    7180  TIP7030    -0.4105
 40451 H1           8.1370   -25.1080   -35.1470 H      7180  TIP7030     0.2052
 40452 H2           7.5050   -25.2440   -33.7780 H      7180  TIP7030     0.2052
 40453 OH2        -12.2320    11.4960    55.0310 O.3    7181  TIP7031    -0.4105
 40454 H1         -11.4230    11.7060    54.5640 H      7181  TIP7031     0.2052
 40455 H2         -12.7870    12.2660    54.9080 H      7181  TIP7031     0.2052
 40456 OH2         -2.8990   -15.1330    30.7910 O.3    7182  TIP7032    -0.4105
 40457 H1          -3.1750   -14.5600    30.0760 H      7182  TIP7032     0.2052
 40458 H2          -2.2700   -15.7320    30.3890 H      7182  TIP7032     0.2052
 40459 OH2         20.8550   -20.2960   -45.9560 O.3    7183  TIP7033    -0.4105
 40460 H1          21.0880   -19.9900   -45.0790 H      7183  TIP7033     0.2052
 40461 H2          21.0860   -21.2240   -45.9560 H      7183  TIP7033     0.2052
 40462 OH2         19.6600   -16.2640    53.2150 O.3    7184  TIP7034    -0.4105
 40463 H1          20.1990   -15.7160    53.7850 H      7184  TIP7034     0.2052
 40464 H2          19.8310   -17.1580    53.5100 H      7184  TIP7034     0.2052
 40465 OH2        -25.9350    14.0050    48.5930 O.3    7185  TIP7035    -0.4105
 40466 H1         -26.6670    14.0650    49.2080 H      7185  TIP7035     0.2052
 40467 H2         -25.2770    14.6050    48.9450 H      7185  TIP7035     0.2052
 40468 OH2          0.8640     6.8560   -48.3570 O.3    7186  TIP7036    -0.4105
 40469 H1           0.2230     7.5460   -48.5270 H      7186  TIP7036     0.2052
 40470 H2           1.3260     6.7480   -49.1880 H      7186  TIP7036     0.2052
 40471 OH2        -27.7410    27.6360   -47.4790 O.3    7187  TIP7037    -0.4105
 40472 H1         -27.0980    27.1780   -46.9380 H      7187  TIP7037     0.2052
 40473 H2         -27.2890    28.4270   -47.7720 H      7187  TIP7037     0.2052
 40474 OH2        -12.6730    21.1500    41.1790 O.3    7188  TIP7038    -0.4105
 40475 H1         -13.0780    20.2940    41.0450 H      7188  TIP7038     0.2052
 40476 H2         -13.2800    21.6150    41.7540 H      7188  TIP7038     0.2052
 40477 OH2        -12.0100   -14.5480    40.6940 O.3    7189  TIP7039    -0.4105
 40478 H1         -11.3260   -14.9440    40.1540 H      7189  TIP7039     0.2052
 40479 H2         -11.5960   -13.7750    41.0770 H      7189  TIP7039     0.2052
 40480 OH2          2.8510   -16.9710    23.4880 O.3    7190  TIP7040    -0.4105
 40481 H1           3.6100   -17.4140    23.1100 H      7190  TIP7040     0.2052
 40482 H2           3.2240   -16.3100    24.0710 H      7190  TIP7040     0.2052
 40483 OH2         23.9030    15.6660   -28.6800 O.3    7191  TIP7041    -0.4105
 40484 H1          24.7110    15.3890   -28.2460 H      7191  TIP7041     0.2052
 40485 H2          23.2240    15.5560   -28.0150 H      7191  TIP7041     0.2052
 40486 OH2         30.0030    17.9070   -26.4030 O.3    7192  TIP7042    -0.4105
 40487 H1          29.6650    17.0300   -26.2230 H      7192  TIP7042     0.2052
 40488 H2          30.9450    17.7820   -26.5200 H      7192  TIP7042     0.2052
 40489 OH2        -11.4840    19.0700   -19.5350 O.3    7193  TIP7043    -0.4105
 40490 H1         -11.3180    20.0070   -19.6370 H      7193  TIP7043     0.2052
 40491 H2         -11.1380    18.8580   -18.6680 H      7193  TIP7043     0.2052
 40492 OH2         26.9420    21.3340    29.1080 O.3    7194  TIP7044    -0.4105
 40493 H1          27.1730    20.4920    29.4990 H      7194  TIP7044     0.2052
 40494 H2          26.6330    21.1140    28.2290 H      7194  TIP7044     0.2052
 40495 OH2         -0.1890   -13.9420    29.2740 O.3    7195  TIP7045    -0.4105
 40496 H1           0.5450   -14.1430    29.8550 H      7195  TIP7045     0.2052
 40497 H2          -0.4570   -14.7910    28.9240 H      7195  TIP7045     0.2052
 40498 OH2         20.5060   -28.7670    55.2960 O.3    7196  TIP7046    -0.4105
 40499 H1          21.3090   -29.1870    55.6040 H      7196  TIP7046     0.2052
 40500 H2          20.5020   -27.9120    55.7280 H      7196  TIP7046     0.2052
 40501 OH2        -21.3160   -20.2300   -47.3570 O.3    7197  TIP7047    -0.4105
 40502 H1         -21.4850   -20.0800   -46.4270 H      7197  TIP7047     0.2052
 40503 H2         -20.3730   -20.0970   -47.4540 H      7197  TIP7047     0.2052
 40504 OH2         26.6660    19.7630    27.0580 O.3    7198  TIP7048    -0.4105
 40505 H1          26.1360    19.3340    26.3860 H      7198  TIP7048     0.2052
 40506 H2          27.5390    19.3850    26.9530 H      7198  TIP7048     0.2052
 40507 OH2        -10.8250   -17.6450    47.4040 O.3    7199  TIP7049    -0.4105
 40508 H1         -11.0410   -16.9260    47.9980 H      7199  TIP7049     0.2052
 40509 H2         -10.4860   -18.3350    47.9750 H      7199  TIP7049     0.2052
 40510 OH2        -21.0520   -19.1860   -44.5370 O.3    7200  TIP7050    -0.4105
 40511 H1         -21.1310   -18.2460   -44.3760 H      7200  TIP7050     0.2052
 40512 H2         -21.1290   -19.5850   -43.6700 H      7200  TIP7050     0.2052
 40513 OH2          2.4180   -20.2300   -39.9430 O.3    7201  TIP7051    -0.4105
 40514 H1           2.6450   -20.6920   -39.1360 H      7201  TIP7051     0.2052
 40515 H2           2.8750   -20.7130   -40.6320 H      7201  TIP7051     0.2052
 40516 OH2         10.9830     5.8190   -24.0500 O.3    7202  TIP7052    -0.4105
 40517 H1          10.2920     6.0330   -23.4240 H      7202  TIP7052     0.2052
 40518 H2          10.8050     6.3790   -24.8060 H      7202  TIP7052     0.2052
 40519 OH2         26.7110    14.2490    53.6780 O.3    7203  TIP7053    -0.4105
 40520 H1          26.3600    15.1050    53.4310 H      7203  TIP7053     0.2052
 40521 H2          26.6740    14.2410    54.6340 H      7203  TIP7053     0.2052
 40522 OH2        -13.6540    15.1930    43.0420 O.3    7204  TIP7054    -0.4105
 40523 H1         -14.2280    14.8310    42.3670 H      7204  TIP7054     0.2052
 40524 H2         -14.2470    15.4490    43.7490 H      7204  TIP7054     0.2052
 40525 OH2         29.5440    29.8240    48.1180 O.3    7205  TIP7055    -0.4105
 40526 H1          30.0950    29.1770    47.6770 H      7205  TIP7055     0.2052
 40527 H2          28.6870    29.7340    47.7010 H      7205  TIP7055     0.2052
 40528 OH2         24.4550    24.6750    46.1550 O.3    7206  TIP7056    -0.4105
 40529 H1          24.1000    24.2700    46.9470 H      7206  TIP7056     0.2052
 40530 H2          25.0240    24.0040    45.7770 H      7206  TIP7056     0.2052
 40531 OH2        -15.6780    -3.0430   -42.7080 O.3    7207  TIP7057    -0.4105
 40532 H1         -16.5660    -3.0430   -43.0650 H      7207  TIP7057     0.2052
 40533 H2         -15.1880    -3.6300   -43.2840 H      7207  TIP7057     0.2052
 40534 OH2         22.3680    29.1990    27.4990 O.3    7208  TIP7058    -0.4105
 40535 H1          22.8730    29.5150    28.2490 H      7208  TIP7058     0.2052
 40536 H2          22.0620    28.3320    27.7640 H      7208  TIP7058     0.2052
 40537 OH2         27.7880    21.8290   -51.4470 O.3    7209  TIP7059    -0.4105
 40538 H1          26.9770    21.4210   -51.7490 H      7209  TIP7059     0.2052
 40539 H2          27.5650    22.2090   -50.5980 H      7209  TIP7059     0.2052
 40540 OH2         17.3500   -32.1670   -30.4190 O.3    7210  TIP7060    -0.4105
 40541 H1          16.8330   -31.4830   -30.8460 H      7210  TIP7060     0.2052
 40542 H2          17.2590   -32.9280   -30.9920 H      7210  TIP7060     0.2052
 40543 OH2        -20.4930   -19.2410    53.4390 O.3    7211  TIP7061    -0.4105
 40544 H1         -21.1500   -19.9150    53.2660 H      7211  TIP7061     0.2052
 40545 H2         -20.0680   -19.5210    54.2490 H      7211  TIP7061     0.2052
 40546 OH2        -29.9000    -7.3080   -52.2980 O.3    7212  TIP7062    -0.4105
 40547 H1         -30.4680    -6.9890   -52.9990 H      7212  TIP7062     0.2052
 40548 H2         -29.1580    -7.7070   -52.7520 H      7212  TIP7062     0.2052
 40549 OH2        -25.5290    -2.1160    32.3480 O.3    7213  TIP7063    -0.4105
 40550 H1         -25.6690    -2.5720    31.5180 H      7213  TIP7063     0.2052
 40551 H2         -25.8750    -2.7130    33.0110 H      7213  TIP7063     0.2052
 40552 OH2        -25.5840    -0.4200    38.4740 O.3    7214  TIP7064    -0.4105
 40553 H1         -25.6050    -0.2490    37.5330 H      7214  TIP7064     0.2052
 40554 H2         -24.9330    -1.1140    38.5780 H      7214  TIP7064     0.2052
 40555 OH2        -23.8820   -16.3860    41.8190 O.3    7215  TIP7065    -0.4105
 40556 H1         -24.2890   -17.2160    41.5700 H      7215  TIP7065     0.2052
 40557 H2         -23.6670   -15.9650    40.9870 H      7215  TIP7065     0.2052
 40558 OH2         12.8200     1.2630   -47.3560 O.3    7216  TIP7066    -0.4105
 40559 H1          12.0300     1.7750   -47.1860 H      7216  TIP7066     0.2052
 40560 H2          13.2950     1.7660   -48.0180 H      7216  TIP7066     0.2052
 40561 OH2         29.5310    -5.2110   -41.7720 O.3    7217  TIP7067    -0.4105
 40562 H1          29.5140    -6.1560   -41.9260 H      7217  TIP7067     0.2052
 40563 H2          30.1350    -4.8710   -42.4320 H      7217  TIP7067     0.2052
 40564 OH2         32.0380     6.0800    40.7140 O.3    7218  TIP7068    -0.4105
 40565 H1          32.7590     6.5340    41.1490 H      7218  TIP7068     0.2052
 40566 H2          31.8880     6.5810    39.9120 H      7218  TIP7068     0.2052
 40567 OH2         12.3730     0.3960   -28.4550 O.3    7219  TIP7069    -0.4105
 40568 H1          11.7890    -0.3530   -28.3340 H      7219  TIP7069     0.2052
 40569 H2          11.8020     1.0980   -28.7670 H      7219  TIP7069     0.2052
 40570 OH2          9.1840   -11.0360    31.6900 O.3    7220  TIP7070    -0.4105
 40571 H1           8.9730   -11.1930    32.6110 H      7220  TIP7070     0.2052
 40572 H2           8.5340   -10.3970    31.4000 H      7220  TIP7070     0.2052
 40573 OH2         16.3900   -10.6810    50.4840 O.3    7221  TIP7071    -0.4105
 40574 H1          16.6290   -11.5730    50.2330 H      7221  TIP7071     0.2052
 40575 H2          17.2200   -10.2050    50.5000 H      7221  TIP7071     0.2052
 40576 OH2        -19.2850   -18.6890   -53.4210 O.3    7222  TIP7072    -0.4105
 40577 H1         -19.3230   -19.4690   -53.9740 H      7222  TIP7072     0.2052
 40578 H2         -20.0630   -18.1860   -53.6600 H      7222  TIP7072     0.2052
 40579 OH2         16.6210     7.8990    40.3530 O.3    7223  TIP7073    -0.4105
 40580 H1          16.7880     8.7100    40.8340 H      7223  TIP7073     0.2052
 40581 H2          16.8290     8.1130    39.4440 H      7223  TIP7073     0.2052
 40582 OH2         26.5900    17.0730   -15.0880 O.3    7224  TIP7074    -0.4105
 40583 H1          27.4010    16.6540   -15.3730 H      7224  TIP7074     0.2052
 40584 H2          26.0580    16.3570   -14.7420 H      7224  TIP7074     0.2052
 40585 OH2        -19.2180    14.3160   -47.5030 O.3    7225  TIP7075    -0.4105
 40586 H1         -19.6210    14.6750   -46.7130 H      7225  TIP7075     0.2052
 40587 H2         -19.9300    14.2840   -48.1430 H      7225  TIP7075     0.2052
 40588 OH2         -2.1300   -12.9560   -34.6310 O.3    7226  TIP7076    -0.4105
 40589 H1          -1.9200   -12.1340   -35.0760 H      7226  TIP7076     0.2052
 40590 H2          -2.6210   -13.4610   -35.2790 H      7226  TIP7076     0.2052
 40591 OH2        -31.5410     9.4790    46.6640 O.3    7227  TIP7077    -0.4105
 40592 H1         -31.0620     8.6510    46.6280 H      7227  TIP7077     0.2052
 40593 H2         -31.4200     9.7880    47.5620 H      7227  TIP7077     0.2052
 40594 OH2        -25.5700    -4.6430    42.3000 O.3    7228  TIP7078    -0.4105
 40595 H1         -24.7710    -4.3040    41.8960 H      7228  TIP7078     0.2052
 40596 H2         -26.2690    -4.0890    41.9510 H      7228  TIP7078     0.2052
 40597 OH2        -11.3120    -0.2370    35.2290 O.3    7229  TIP7079    -0.4105
 40598 H1         -11.3470    -0.8310    34.4800 H      7229  TIP7079     0.2052
 40599 H2         -12.0470     0.3610    35.0960 H      7229  TIP7079     0.2052
 40600 OH2         23.7820   -17.8840   -18.0490 O.3    7230  TIP7080    -0.4105
 40601 H1          23.0840   -17.5690   -17.4750 H      7230  TIP7080     0.2052
 40602 H2          23.3230   -18.2820   -18.7890 H      7230  TIP7080     0.2052
 40603 OH2         30.2190     6.6980    27.7570 O.3    7231  TIP7081    -0.4105
 40604 H1          29.6810     7.0390    28.4710 H      7231  TIP7081     0.2052
 40605 H2          30.6740     7.4670    27.4110 H      7231  TIP7081     0.2052
 40606 OH2        -31.7710    21.0960   -45.4940 O.3    7232  TIP7082    -0.4105
 40607 H1         -32.2460    21.7810   -45.9650 H      7232  TIP7082     0.2052
 40608 H2         -31.8960    21.3090   -44.5690 H      7232  TIP7082     0.2052
 40609 OH2         -3.5000   -21.2900    31.3510 O.3    7233  TIP7083    -0.4105
 40610 H1          -2.7130   -21.0790    31.8550 H      7233  TIP7083     0.2052
 40611 H2          -3.5740   -22.2420    31.4090 H      7233  TIP7083     0.2052
 40612 OH2         -2.1360    11.2040    38.1600 O.3    7234  TIP7084    -0.4105
 40613 H1          -1.6870    10.3900    37.9310 H      7234  TIP7084     0.2052
 40614 H2          -1.4900    11.8900    37.9900 H      7234  TIP7084     0.2052
 40615 OH2         19.5750   -32.5880    37.3380 O.3    7235  TIP7085    -0.4105
 40616 H1          20.0750   -33.2850    37.7620 H      7235  TIP7085     0.2052
 40617 H2          20.1470   -31.8220    37.3770 H      7235  TIP7085     0.2052
 40618 OH2         13.4840   -29.3470    28.2610 O.3    7236  TIP7086    -0.4105
 40619 H1          14.2970   -29.0710    28.6840 H      7236  TIP7086     0.2052
 40620 H2          13.5530   -29.0110    27.3670 H      7236  TIP7086     0.2052
 40621 OH2         21.8820   -18.2160    19.6890 O.3    7237  TIP7087    -0.4105
 40622 H1          22.5250   -17.5200    19.8280 H      7237  TIP7087     0.2052
 40623 H2          21.0710   -17.7540    19.4780 H      7237  TIP7087     0.2052
 40624 OH2        -11.6050    28.2510    53.8820 O.3    7238  TIP7088    -0.4105
 40625 H1         -11.2450    28.8200    53.2010 H      7238  TIP7088     0.2052
 40626 H2         -10.8720    27.6920    54.1380 H      7238  TIP7088     0.2052
 40627 OH2         24.1510    -3.0970   -44.6130 O.3    7239  TIP7089    -0.4105
 40628 H1          24.2420    -3.9130   -44.1200 H      7239  TIP7089     0.2052
 40629 H2          24.5610    -2.4340   -44.0570 H      7239  TIP7089     0.2052
 40630 OH2        -33.0190    -0.5490    24.5380 O.3    7240  TIP7090    -0.4105
 40631 H1         -33.7530    -0.2080    25.0490 H      7240  TIP7090     0.2052
 40632 H2         -33.2980    -1.4260    24.2750 H      7240  TIP7090     0.2052
 40633 OH2        -17.9710    14.4800    51.6920 O.3    7241  TIP7091    -0.4105
 40634 H1         -18.7980    14.4140    51.2140 H      7241  TIP7091     0.2052
 40635 H2         -17.7450    13.5740    51.9050 H      7241  TIP7091     0.2052
 40636 OH2          7.0060    -2.6970   -26.8280 O.3    7242  TIP7092    -0.4105
 40637 H1           7.6940    -2.1240   -26.4890 H      7242  TIP7092     0.2052
 40638 H2           6.2180    -2.1540   -26.8230 H      7242  TIP7092     0.2052
 40639 OH2         23.7700     5.2860    53.7260 O.3    7243  TIP7093    -0.4105
 40640 H1          23.3910     4.8070    54.4630 H      7243  TIP7093     0.2052
 40641 H2          23.9990     4.6080    53.0910 H      7243  TIP7093     0.2052
 40642 OH2          2.6400    31.9380    23.1040 O.3    7244  TIP7094    -0.4105
 40643 H1           1.9260    32.3280    22.5990 H      7244  TIP7094     0.2052
 40644 H2           2.8690    32.6060    23.7500 H      7244  TIP7094     0.2052
 40645 OH2         13.7280    24.3150    35.2370 O.3    7245  TIP7095    -0.4105
 40646 H1          13.6540    24.0180    36.1440 H      7245  TIP7095     0.2052
 40647 H2          14.3100    25.0740    35.2800 H      7245  TIP7095     0.2052
 40648 OH2        -21.9310     7.2970   -30.5900 O.3    7246  TIP7096    -0.4105
 40649 H1         -22.0670     6.5520   -31.1750 H      7246  TIP7096     0.2052
 40650 H2         -20.9840     7.4330   -30.5900 H      7246  TIP7096     0.2052
 40651 OH2          7.2260    -1.5250    38.2120 O.3    7247  TIP7097    -0.4105
 40652 H1           7.5530    -0.6680    38.4870 H      7247  TIP7097     0.2052
 40653 H2           7.7010    -2.1500    38.7600 H      7247  TIP7097     0.2052
 40654 OH2         -9.0800    20.9730    38.2080 O.3    7248  TIP7098    -0.4105
 40655 H1          -8.5630    21.2600    38.9600 H      7248  TIP7098     0.2052
 40656 H2          -9.6870    20.3250    38.5660 H      7248  TIP7098     0.2052
 40657 OH2          1.8980    -3.9310    29.9320 O.3    7249  TIP7099    -0.4105
 40658 H1           0.9450    -4.0170    29.9040 H      7249  TIP7099     0.2052
 40659 H2           2.0900    -3.6820    30.8360 H      7249  TIP7099     0.2052
 40660 OH2         18.8160    16.9710    34.6620 O.3    7250  TIP7100    -0.4105
 40661 H1          18.3990    17.1440    33.8180 H      7250  TIP7100     0.2052
 40662 H2          18.0990    16.6940    35.2320 H      7250  TIP7100     0.2052
 40663 OH2          3.4860     9.9760    48.1770 O.3    7251  TIP7101    -0.4105
 40664 H1           3.9000    10.8390    48.1820 H      7251  TIP7101     0.2052
 40665 H2           2.6990    10.0830    48.7120 H      7251  TIP7101     0.2052
 40666 OH2        -13.3980   -15.7120    34.1590 O.3    7252  TIP7102    -0.4105
 40667 H1         -14.2630   -15.3830    33.9150 H      7252  TIP7102     0.2052
 40668 H2         -13.3580   -16.5890    33.7800 H      7252  TIP7102     0.2052
 40669 OH2        -15.7300   -27.9850   -46.4920 O.3    7253  TIP7103    -0.4105
 40670 H1         -15.7720   -27.1180   -46.8970 H      7253  TIP7103     0.2052
 40671 H2         -14.8000   -28.1230   -46.3170 H      7253  TIP7103     0.2052
 40672 OH2         -9.1070   -16.0340   -36.1040 O.3    7254  TIP7104    -0.4105
 40673 H1          -8.9960   -16.4400   -35.2440 H      7254  TIP7104     0.2052
 40674 H2         -10.0430   -15.8430   -36.1610 H      7254  TIP7104     0.2052
 40675 OH2         -4.6100    -9.4460    39.2710 O.3    7255  TIP7105    -0.4105
 40676 H1          -5.2770    -8.7590    39.2690 H      7255  TIP7105     0.2052
 40677 H2          -3.9390    -9.1270    39.8760 H      7255  TIP7105     0.2052
 40678 OH2         22.1910    23.6290   -35.1120 O.3    7256  TIP7106    -0.4105
 40679 H1          21.8470    24.5080   -34.9520 H      7256  TIP7106     0.2052
 40680 H2          21.5420    23.2180   -35.6840 H      7256  TIP7106     0.2052
 40681 OH2        -20.6300    21.9250    18.3380 O.3    7257  TIP7107    -0.4105
 40682 H1         -19.8980    22.4750    18.0600 H      7257  TIP7107     0.2052
 40683 H2         -20.8330    22.2260    19.2240 H      7257  TIP7107     0.2052
 40684 OH2         12.0020    -4.7310   -20.0150 O.3    7258  TIP7108    -0.4105
 40685 H1          11.9470    -5.4150   -20.6830 H      7258  TIP7108     0.2052
 40686 H2          11.2360    -4.1790   -20.1740 H      7258  TIP7108     0.2052
 40687 OH2         -3.4770   -21.4620    18.5090 O.3    7259  TIP7109    -0.4105
 40688 H1          -3.0830   -21.1490    17.6950 H      7259  TIP7109     0.2052
 40689 H2          -2.7760   -21.3950    19.1570 H      7259  TIP7109     0.2052
 40690 OH2         16.3390   -22.3810    48.4080 O.3    7260  TIP7110    -0.4105
 40691 H1          16.7850   -21.5510    48.5710 H      7260  TIP7110     0.2052
 40692 H2          16.2320   -22.4130    47.4570 H      7260  TIP7110     0.2052
 40693 OH2         27.2310    19.8000   -47.9610 O.3    7261  TIP7111    -0.4105
 40694 H1          27.8950    20.2900   -47.4760 H      7261  TIP7111     0.2052
 40695 H2          27.6780    19.5130   -48.7570 H      7261  TIP7111     0.2052
 40696 OH2         12.1210     4.7510   -20.3870 O.3    7262  TIP7112    -0.4105
 40697 H1          12.6860     4.2720   -20.9930 H      7262  TIP7112     0.2052
 40698 H2          11.8770     4.1050   -19.7250 H      7262  TIP7112     0.2052
 40699 OH2        -15.5500   -22.9660    55.1380 O.3    7263  TIP7113    -0.4105
 40700 H1         -15.8830   -22.2750    55.7100 H      7263  TIP7113     0.2052
 40701 H2         -14.7570   -23.2780    55.5750 H      7263  TIP7113     0.2052
 40702 OH2        -20.8060   -19.9370   -41.9190 O.3    7264  TIP7114    -0.4105
 40703 H1         -20.2220   -20.5760   -41.5090 H      7264  TIP7114     0.2052
 40704 H2         -21.3810   -19.6490   -41.2100 H      7264  TIP7114     0.2052
 40705 OH2         -8.0420   -18.9200   -43.7950 O.3    7265  TIP7115    -0.4105
 40706 H1          -7.2920   -19.4730   -43.5770 H      7265  TIP7115     0.2052
 40707 H2          -7.8460   -18.0780   -43.3840 H      7265  TIP7115     0.2052
 40708 OH2        -12.5950    15.3660    36.0720 O.3    7266  TIP7116    -0.4105
 40709 H1         -11.6420    15.3540    35.9800 H      7266  TIP7116     0.2052
 40710 H2         -12.8320    16.2900    35.9890 H      7266  TIP7116     0.2052
 40711 OH2          6.2180     1.8610   -44.3190 O.3    7267  TIP7117    -0.4105
 40712 H1           5.8320     1.1380   -43.8240 H      7267  TIP7117     0.2052
 40713 H2           5.8440     2.6490   -43.9250 H      7267  TIP7117     0.2052
 40714 OH2          1.7640     4.6590   -29.4860 O.3    7268  TIP7118    -0.4105
 40715 H1           1.7840     4.6970   -30.4420 H      7268  TIP7118     0.2052
 40716 H2           0.8600     4.4240   -29.2740 H      7268  TIP7118     0.2052
 40717 OH2         18.7040   -25.7960    34.3390 O.3    7269  TIP7119    -0.4105
 40718 H1          18.1840   -25.3850    35.0300 H      7269  TIP7119     0.2052
 40719 H2          18.3080   -25.4860    33.5250 H      7269  TIP7119     0.2052
 40720 OH2          4.8670     3.3790   -37.0340 O.3    7270  TIP7120    -0.4105
 40721 H1           4.2230     3.0920   -37.6810 H      7270  TIP7120     0.2052
 40722 H2           5.2290     4.1870   -37.3990 H      7270  TIP7120     0.2052
 40723 OH2        -18.8090   -20.5170    51.4800 O.3    7271  TIP7121    -0.4105
 40724 H1         -18.5050   -21.3970    51.7000 H      7271  TIP7121     0.2052
 40725 H2         -19.3220   -20.2430    52.2410 H      7271  TIP7121     0.2052
 40726 OH2        -11.1250    24.0210    49.5370 O.3    7272  TIP7122    -0.4105
 40727 H1         -11.0840    23.3020    48.9070 H      7272  TIP7122     0.2052
 40728 H2         -11.8350    23.7780    50.1320 H      7272  TIP7122     0.2052
 40729 OH2          7.2920   -28.5360    32.8820 O.3    7273  TIP7123    -0.4105
 40730 H1           7.8360   -27.7490    32.8480 H      7273  TIP7123     0.2052
 40731 H2           7.2950   -28.8690    31.9840 H      7273  TIP7123     0.2052
 40732 OH2         17.9750    -1.7200   -17.9800 O.3    7274  TIP7124    -0.4105
 40733 H1          18.2050    -1.5530   -17.0660 H      7274  TIP7124     0.2052
 40734 H2          17.7010    -0.8680   -18.3180 H      7274  TIP7124     0.2052
 40735 OH2        -21.0510   -20.3390    45.7210 O.3    7275  TIP7125    -0.4105
 40736 H1         -21.8500   -20.5640    46.1970 H      7275  TIP7125     0.2052
 40737 H2         -21.3600   -19.9240    44.9160 H      7275  TIP7125     0.2052
 40738 OH2        -11.1880    17.0960   -35.4490 O.3    7276  TIP7126    -0.4105
 40739 H1         -11.0840    17.4290   -36.3410 H      7276  TIP7126     0.2052
 40740 H2         -11.5830    17.8210   -34.9660 H      7276  TIP7126     0.2052
 40741 OH2         -9.7150   -18.3390   -53.7720 O.3    7277  TIP7127    -0.4105
 40742 H1          -9.2100   -17.6920   -54.2650 H      7277  TIP7127     0.2052
 40743 H2         -10.5410   -17.8980   -53.5740 H      7277  TIP7127     0.2052
 40744 OH2        -19.5410    26.4220   -26.0890 O.3    7278  TIP7128    -0.4105
 40745 H1         -19.2630    26.9080   -25.3130 H      7278  TIP7128     0.2052
 40746 H2         -20.4880    26.3290   -25.9880 H      7278  TIP7128     0.2052
 40747 OH2         19.1040    16.9560   -27.6070 O.3    7279  TIP7129    -0.4105
 40748 H1          18.8850    17.8740   -27.7690 H      7279  TIP7129     0.2052
 40749 H2          18.4370    16.6560   -26.9890 H      7279  TIP7129     0.2052
 40750 OH2         29.4360    -1.3740   -51.4650 O.3    7280  TIP7130    -0.4105
 40751 H1          29.4570    -0.4500   -51.7140 H      7280  TIP7130     0.2052
 40752 H2          29.3860    -1.3630   -50.5090 H      7280  TIP7130     0.2052
 40753 OH2         -2.4780   -29.7490   -18.9760 O.3    7281  TIP7131    -0.4105
 40754 H1          -2.4550   -30.7010   -18.8770 H      7281  TIP7131     0.2052
 40755 H2          -2.8830   -29.4330   -18.1680 H      7281  TIP7131     0.2052
 40756 OH2        -13.1200   -31.7090    53.0810 O.3    7282  TIP7132    -0.4105
 40757 H1         -13.9230   -31.7300    53.6010 H      7282  TIP7132     0.2052
 40758 H2         -12.4330   -31.9820    53.6880 H      7282  TIP7132     0.2052
 40759 OH2        -31.1920    -4.4760    40.0270 O.3    7283  TIP7133    -0.4105
 40760 H1         -31.2950    -4.1310    40.9140 H      7283  TIP7133     0.2052
 40761 H2         -30.6940    -5.2850    40.1410 H      7283  TIP7133     0.2052
 40762 OH2        -29.6360   -15.7360    14.9070 O.3    7284  TIP7134    -0.4105
 40763 H1         -29.2900   -16.2560    14.1820 H      7284  TIP7134     0.2052
 40764 H2         -30.5280   -16.0620    15.0320 H      7284  TIP7134     0.2052
 40765 OH2         32.7440    14.7110    40.1790 O.3    7285  TIP7135    -0.4105
 40766 H1          33.6750    14.7740    40.3920 H      7285  TIP7135     0.2052
 40767 H2          32.2960    14.8650    41.0110 H      7285  TIP7135     0.2052
 40768 OH2         22.7120   -19.6530    28.4740 O.3    7286  TIP7136    -0.4105
 40769 H1          23.1420   -20.2620    27.8730 H      7286  TIP7136     0.2052
 40770 H2          23.3860   -19.4340    29.1170 H      7286  TIP7136     0.2052
 40771 OH2         21.5400    23.7860    28.3550 O.3    7287  TIP7137    -0.4105
 40772 H1          21.7990    24.2110    27.5370 H      7287  TIP7137     0.2052
 40773 H2          22.1350    23.0410    28.4380 H      7287  TIP7137     0.2052
 40774 OH2          1.4890     2.6590    50.1340 O.3    7288  TIP7138    -0.4105
 40775 H1           2.2470     2.0760    50.0820 H      7288  TIP7138     0.2052
 40776 H2           1.4890     3.1260    49.2980 H      7288  TIP7138     0.2052
 40777 OH2         26.5910   -26.3310    46.9960 O.3    7289  TIP7139    -0.4105
 40778 H1          26.4890   -25.5940    46.3930 H      7289  TIP7139     0.2052
 40779 H2          26.5090   -27.1070    46.4410 H      7289  TIP7139     0.2052
 40780 OH2        -24.5620   -16.5750   -22.3410 O.3    7290  TIP7140    -0.4105
 40781 H1         -23.8490   -16.7050   -21.7160 H      7290  TIP7140     0.2052
 40782 H2         -24.9460   -15.7330   -22.0960 H      7290  TIP7140     0.2052
 40783 OH2        -32.0540   -28.1810   -39.0130 O.3    7291  TIP7141    -0.4105
 40784 H1         -32.8050   -28.7090   -38.7400 H      7291  TIP7141     0.2052
 40785 H2         -32.4410   -27.4100   -39.4280 H      7291  TIP7141     0.2052
 40786 OH2         23.5580    -1.1220    53.7230 O.3    7292  TIP7142    -0.4105
 40787 H1          23.6670    -0.3760    54.3130 H      7292  TIP7142     0.2052
 40788 H2          23.8140    -0.7870    52.8640 H      7292  TIP7142     0.2052
 40789 OH2        -20.4640    32.4140   -39.3860 O.3    7293  TIP7143    -0.4105
 40790 H1         -19.7850    31.8490   -39.7550 H      7293  TIP7143     0.2052
 40791 H2         -20.4220    32.2550   -38.4430 H      7293  TIP7143     0.2052
 40792 OH2         23.1530    21.1040    35.9180 O.3    7294  TIP7144    -0.4105
 40793 H1          23.7870    20.4010    36.0610 H      7294  TIP7144     0.2052
 40794 H2          23.1340    21.2200    34.9680 H      7294  TIP7144     0.2052
 40795 OH2         22.4490    12.7110   -13.3300 O.3    7295  TIP7145    -0.4105
 40796 H1          21.9860    13.2270   -12.6690 H      7295  TIP7145     0.2052
 40797 H2          23.2470    12.4190   -12.8890 H      7295  TIP7145     0.2052
 40798 OH2          4.8840    -9.4740   -15.1870 O.3    7296  TIP7146    -0.4105
 40799 H1           4.1510    -8.8960   -15.4000 H      7296  TIP7146     0.2052
 40800 H2           4.4730   -10.3040   -14.9460 H      7296  TIP7146     0.2052
 40801 OH2        -21.1960    27.6460   -53.3880 O.3    7297  TIP7147    -0.4105
 40802 H1         -22.0160    28.0270   -53.7030 H      7297  TIP7147     0.2052
 40803 H2         -21.4200    26.7420   -53.1680 H      7297  TIP7147     0.2052
 40804 OH2        -27.4450   -31.3680   -37.7690 O.3    7298  TIP7148    -0.4105
 40805 H1         -26.9740   -30.6700   -37.3140 H      7298  TIP7148     0.2052
 40806 H2         -27.1270   -32.1750   -37.3660 H      7298  TIP7148     0.2052
 40807 OH2         14.9100    -8.3650   -16.8360 O.3    7299  TIP7149    -0.4105
 40808 H1          14.2070    -7.7620   -17.0770 H      7299  TIP7149     0.2052
 40809 H2          14.6040    -9.2220   -17.1330 H      7299  TIP7149     0.2052
 40810 OH2        -19.0800   -11.1950    33.6100 O.3    7300  TIP7150    -0.4105
 40811 H1         -19.1250   -11.4790    34.5230 H      7300  TIP7150     0.2052
 40812 H2         -19.9390   -10.8100    33.4360 H      7300  TIP7150     0.2052
 40813 OH2         -7.7680     6.0030    36.9860 O.3    7301  TIP7151    -0.4105
 40814 H1          -7.8610     5.1160    37.3360 H      7301  TIP7151     0.2052
 40815 H2          -8.2750     6.5510    37.5840 H      7301  TIP7151     0.2052
 40816 OH2          2.1080   -24.6570    50.1150 O.3    7302  TIP7152    -0.4105
 40817 H1           2.6450   -24.8650    50.8800 H      7302  TIP7152     0.2052
 40818 H2           2.3920   -23.7810    49.8530 H      7302  TIP7152     0.2052
 40819 OH2         16.2870   -30.7740   -33.7250 O.3    7303  TIP7153    -0.4105
 40820 H1          16.0410   -31.6980   -33.7730 H      7303  TIP7153     0.2052
 40821 H2          17.1330   -30.7270   -34.1690 H      7303  TIP7153     0.2052
 40822 OH2        -22.6520    17.5070    50.1950 O.3    7304  TIP7154    -0.4105
 40823 H1         -22.7180    18.2770    49.6300 H      7304  TIP7154     0.2052
 40824 H2         -21.7190    17.4410    50.4020 H      7304  TIP7154     0.2052
 40825 OH2         29.3700   -25.8210    27.9910 O.3    7305  TIP7155    -0.4105
 40826 H1          28.8940   -26.6170    27.7540 H      7305  TIP7155     0.2052
 40827 H2          29.1080   -25.6450    28.8950 H      7305  TIP7155     0.2052
 40828 OH2        -13.0330   -29.5410    35.9030 O.3    7306  TIP7156    -0.4105
 40829 H1         -12.8720   -29.4100    34.9690 H      7306  TIP7156     0.2052
 40830 H2         -13.9750   -29.4060    36.0050 H      7306  TIP7156     0.2052
 40831 OH2         18.8550    -0.0730   -24.6990 O.3    7307  TIP7157    -0.4105
 40832 H1          19.7520     0.0890   -24.9910 H      7307  TIP7157     0.2052
 40833 H2          18.3270    -0.0030   -25.4950 H      7307  TIP7157     0.2052
 40834 OH2          6.9960    -8.0350    44.3190 O.3    7308  TIP7158    -0.4105
 40835 H1           6.7400    -8.9560    44.3830 H      7308  TIP7158     0.2052
 40836 H2           7.0350    -7.8630    43.3780 H      7308  TIP7158     0.2052
 40837 OH2          5.8210    -0.1090   -17.7780 O.3    7309  TIP7159    -0.4105
 40838 H1           5.7880    -0.6040   -16.9590 H      7309  TIP7159     0.2052
 40839 H2           6.6840     0.3070   -17.7730 H      7309  TIP7159     0.2052
 40840 OH2          9.6070     9.2130   -22.1380 O.3    7310  TIP7160    -0.4105
 40841 H1           9.7990     8.4050   -21.6610 H      7310  TIP7160     0.2052
 40842 H2           8.8870     9.6140   -21.6520 H      7310  TIP7160     0.2052
 40843 OH2        -19.0220    19.0930   -34.6670 O.3    7311  TIP7161    -0.4105
 40844 H1         -19.7350    18.4580   -34.6010 H      7311  TIP7161     0.2052
 40845 H2         -18.9900    19.3230   -35.5960 H      7311  TIP7161     0.2052
 40846 OH2        -22.8470   -32.4070    25.2840 O.3    7312  TIP7162    -0.4105
 40847 H1         -22.0380   -32.2800    25.7790 H      7312  TIP7162     0.2052
 40848 H2         -23.2080   -33.2280    25.6200 H      7312  TIP7162     0.2052
 40849 OH2          7.6620   -16.7620   -20.9140 O.3    7313  TIP7163    -0.4105
 40850 H1           7.7030   -17.6850   -20.6620 H      7313  TIP7163     0.2052
 40851 H2           6.7500   -16.5130   -20.7630 H      7313  TIP7163     0.2052
 40852 OH2        -24.6490    -5.7650    47.2730 O.3    7314  TIP7164    -0.4105
 40853 H1         -24.4860    -5.4670    48.1680 H      7314  TIP7164     0.2052
 40854 H2         -23.8070    -5.6660    46.8300 H      7314  TIP7164     0.2052
 40855 OH2         10.8130    -8.2950   -38.9600 O.3    7315  TIP7165    -0.4105
 40856 H1          11.6790    -8.0820   -38.6130 H      7315  TIP7165     0.2052
 40857 H2          10.9250    -8.2810   -39.9100 H      7315  TIP7165     0.2052
 40858 OH2         -1.3270    22.0760    36.8330 O.3    7316  TIP7166    -0.4105
 40859 H1          -1.7640    22.7630    36.3300 H      7316  TIP7166     0.2052
 40860 H2          -1.4900    22.3060    37.7470 H      7316  TIP7166     0.2052
 40861 OH2         13.6010   -23.2640   -43.3000 O.3    7317  TIP7167    -0.4105
 40862 H1          14.1450   -22.4870   -43.1740 H      7317  TIP7167     0.2052
 40863 H2          12.9850   -23.2470   -42.5680 H      7317  TIP7167     0.2052
 40864 OH2         13.4290    18.6490    28.9070 O.3    7318  TIP7168    -0.4105
 40865 H1          13.5260    19.2070    29.6790 H      7318  TIP7168     0.2052
 40866 H2          12.4960    18.4380    28.8790 H      7318  TIP7168     0.2052
 40867 OH2        -16.0160    -1.9830    26.9920 O.3    7319  TIP7169    -0.4105
 40868 H1         -16.7560    -2.5720    26.8470 H      7319  TIP7169     0.2052
 40869 H2         -15.3920    -2.2070    26.3010 H      7319  TIP7169     0.2052
 40870 OH2          8.9840     0.8910   -48.6180 O.3    7320  TIP7170    -0.4105
 40871 H1           9.0610     1.8440   -48.5600 H      7320  TIP7170     0.2052
 40872 H2           9.1930     0.6880   -49.5290 H      7320  TIP7170     0.2052
 40873 OH2        -20.2630    13.1250    50.6870 O.3    7321  TIP7171    -0.4105
 40874 H1         -20.9270    12.4700    50.9020 H      7321  TIP7171     0.2052
 40875 H2         -20.4200    13.3340    49.7660 H      7321  TIP7171     0.2052
 40876 OH2        -23.6430    19.1790    46.1220 O.3    7322  TIP7172    -0.4105
 40877 H1         -23.5330    20.1290    46.1470 H      7322  TIP7172     0.2052
 40878 H2         -24.5700    19.0490    45.9240 H      7322  TIP7172     0.2052
 40879 OH2         14.6580     6.7090   -18.8680 O.3    7323  TIP7173    -0.4105
 40880 H1          14.3010     6.9590   -19.7210 H      7323  TIP7173     0.2052
 40881 H2          14.7950     7.5390   -18.4130 H      7323  TIP7173     0.2052
 40882 OH2         18.8540    -8.8390   -32.6410 O.3    7324  TIP7174    -0.4105
 40883 H1          18.6860    -7.9060   -32.5110 H      7324  TIP7174     0.2052
 40884 H2          19.8080    -8.9080   -32.6770 H      7324  TIP7174     0.2052
 40885 OH2          5.9530     8.8200    48.6600 O.3    7325  TIP7175    -0.4105
 40886 H1           5.0820     9.0170    48.3160 H      7325  TIP7175     0.2052
 40887 H2           6.3860     9.6710    48.7210 H      7325  TIP7175     0.2052
 40888 OH2          9.5040   -14.5730   -21.4550 O.3    7326  TIP7176    -0.4105
 40889 H1           9.0120   -15.3940   -21.4580 H      7326  TIP7176     0.2052
 40890 H2          10.0730   -14.6370   -20.6880 H      7326  TIP7176     0.2052
 40891 OH2        -24.3250    -9.4050    30.5250 O.3    7327  TIP7177    -0.4105
 40892 H1         -24.5150    -9.2010    31.4400 H      7327  TIP7177     0.2052
 40893 H2         -23.3880    -9.6030    30.5130 H      7327  TIP7177     0.2052
 40894 OH2         -1.2760    -4.1720    47.8020 O.3    7328  TIP7178    -0.4105
 40895 H1          -1.7760    -4.9230    48.1210 H      7328  TIP7178     0.2052
 40896 H2          -1.4930    -3.4650    48.4090 H      7328  TIP7178     0.2052
 40897 OH2        -15.9260    22.5530   -42.0180 O.3    7329  TIP7179    -0.4105
 40898 H1         -16.2820    23.4410   -42.0210 H      7329  TIP7179     0.2052
 40899 H2         -16.6410    22.0090   -41.6850 H      7329  TIP7179     0.2052
 40900 OH2         31.3730    -7.6200   -32.7610 O.3    7330  TIP7180    -0.4105
 40901 H1          31.6940    -6.7790   -33.0860 H      7330  TIP7180     0.2052
 40902 H2          32.0390    -7.9050   -32.1350 H      7330  TIP7180     0.2052
 40903 OH2         -2.3060   -14.3540    50.8450 O.3    7331  TIP7181    -0.4105
 40904 H1          -3.1280   -14.2340    50.3690 H      7331  TIP7181     0.2052
 40905 H2          -1.6700   -13.8260    50.3620 H      7331  TIP7181     0.2052
 40906 OH2         -3.7460   -17.5270    47.4240 O.3    7332  TIP7182    -0.4105
 40907 H1          -4.0900   -17.3610    46.5470 H      7332  TIP7182     0.2052
 40908 H2          -2.8350   -17.2340    47.3840 H      7332  TIP7182     0.2052
 40909 OH2         14.4930    16.1250   -35.2440 O.3    7333  TIP7183    -0.4105
 40910 H1          14.4320    15.1760   -35.3550 H      7333  TIP7183     0.2052
 40911 H2          13.6280    16.3860   -34.9270 H      7333  TIP7183     0.2052
 40912 OH2          1.1880    -2.5360   -38.6840 O.3    7334  TIP7184    -0.4105
 40913 H1           0.6970    -2.2020   -39.4350 H      7334  TIP7184     0.2052
 40914 H2           0.5330    -2.9850   -38.1490 H      7334  TIP7184     0.2052
 40915 OH2          0.1680   -25.4090    22.7670 O.3    7335  TIP7185    -0.4105
 40916 H1           0.0300   -24.6270    23.3010 H      7335  TIP7185     0.2052
 40917 H2           0.6970   -25.1050    22.0290 H      7335  TIP7185     0.2052
 40918 OH2         18.5710    19.2440   -19.5880 O.3    7336  TIP7186    -0.4105
 40919 H1          18.4280    20.0940   -20.0040 H      7336  TIP7186     0.2052
 40920 H2          19.5210    19.1840   -19.4850 H      7336  TIP7186     0.2052
 40921 OH2         26.5800   -27.7680    34.9910 O.3    7337  TIP7187    -0.4105
 40922 H1          27.2430   -28.4200    35.2200 H      7337  TIP7187     0.2052
 40923 H2          25.7500   -28.1730    35.2410 H      7337  TIP7187     0.2052
 40924 OH2         30.4920    25.5130    43.2420 O.3    7338  TIP7188    -0.4105
 40925 H1          30.8210    25.5280    42.3430 H      7338  TIP7188     0.2052
 40926 H2          29.5400    25.5430    43.1500 H      7338  TIP7188     0.2052
 40927 OH2        -24.8770    27.7660   -38.5720 O.3    7339  TIP7189    -0.4105
 40928 H1         -25.5120    27.0530   -38.5070 H      7339  TIP7189     0.2052
 40929 H2         -25.0650    28.1790   -39.4140 H      7339  TIP7189     0.2052
 40930 OH2         13.9960    10.6220   -40.0920 O.3    7340  TIP7190    -0.4105
 40931 H1          14.1660    11.5640   -40.0650 H      7340  TIP7190     0.2052
 40932 H2          14.2220    10.3630   -40.9850 H      7340  TIP7190     0.2052
 40933 OH2          6.9150     8.1950   -53.1530 O.3    7341  TIP7191    -0.4105
 40934 H1           6.3950     8.6000   -53.8470 H      7341  TIP7191     0.2052
 40935 H2           6.8920     8.8290   -52.4350 H      7341  TIP7191     0.2052
 40936 OH2          8.9120    10.9620    40.9100 O.3    7342  TIP7192    -0.4105
 40937 H1           8.7050    10.0610    41.1580 H      7342  TIP7192     0.2052
 40938 H2           8.7650    10.9910    39.9640 H      7342  TIP7192     0.2052
 40939 OH2         10.4810   -13.2720    30.6030 O.3    7343  TIP7193    -0.4105
 40940 H1          11.4060   -13.1340    30.8050 H      7343  TIP7193     0.2052
 40941 H2          10.0180   -12.6440    31.1560 H      7343  TIP7193     0.2052
 40942 OH2         -2.9640    14.6300    32.1200 O.3    7344  TIP7194    -0.4105
 40943 H1          -3.7310    14.6180    31.5470 H      7344  TIP7194     0.2052
 40944 H2          -3.3220    14.5360    33.0030 H      7344  TIP7194     0.2052
 40945 OH2        -14.4180    -9.0470   -27.5880 O.3    7345  TIP7195    -0.4105
 40946 H1         -14.7040    -9.7350   -28.1890 H      7345  TIP7195     0.2052
 40947 H2         -14.9780    -9.1520   -26.8190 H      7345  TIP7195     0.2052
 40948 OH2        -17.1910   -33.0370   -35.0090 O.3    7346  TIP7196    -0.4105
 40949 H1         -17.0640   -33.9570   -35.2420 H      7346  TIP7196     0.2052
 40950 H2         -17.1790   -32.5740   -35.8460 H      7346  TIP7196     0.2052
 40951 OH2         -3.6550   -21.1080   -24.6350 O.3    7347  TIP7197    -0.4105
 40952 H1          -3.7950   -20.7700   -25.5200 H      7347  TIP7197     0.2052
 40953 H2          -4.4500   -21.6030   -24.4390 H      7347  TIP7197     0.2052
 40954 OH2         -0.9700    19.0970    28.5570 O.3    7348  TIP7198    -0.4105
 40955 H1          -1.2690    19.5010    27.7420 H      7348  TIP7198     0.2052
 40956 H2          -0.6130    18.2510    28.2890 H      7348  TIP7198     0.2052
 40957 OH2        -11.4080    -4.3620    48.4800 O.3    7349  TIP7199    -0.4105
 40958 H1         -11.0660    -3.4840    48.3090 H      7349  TIP7199     0.2052
 40959 H2         -11.2140    -4.8550    47.6830 H      7349  TIP7199     0.2052
 40960 OH2         -3.9610   -19.7230   -29.5500 O.3    7350  TIP7200    -0.4105
 40961 H1          -4.3150   -20.5400   -29.9000 H      7350  TIP7200     0.2052
 40962 H2          -3.9550   -19.8500   -28.6010 H      7350  TIP7200     0.2052
 40963 OH2         11.5220   -28.5990   -46.9610 O.3    7351  TIP7201    -0.4105
 40964 H1          11.5940   -27.7960   -46.4460 H      7351  TIP7201     0.2052
 40965 H2          11.8470   -29.2870   -46.3800 H      7351  TIP7201     0.2052
 40966 OH2          4.2580     7.5800   -25.9580 O.3    7352  TIP7202    -0.4105
 40967 H1           4.1880     6.9790   -26.7000 H      7352  TIP7202     0.2052
 40968 H2           3.4500     7.4440   -25.4630 H      7352  TIP7202     0.2052
 40969 OH2         -1.1840   -12.9200    37.0510 O.3    7353  TIP7203    -0.4105
 40970 H1          -1.4320   -12.9740    36.1280 H      7353  TIP7203     0.2052
 40971 H2          -0.6010   -12.1630    37.0990 H      7353  TIP7203     0.2052
 40972 OH2          4.8190    10.5330    45.0570 O.3    7354  TIP7204    -0.4105
 40973 H1           4.7720    10.9690    45.9080 H      7354  TIP7204     0.2052
 40974 H2           4.3410     9.7130    45.1800 H      7354  TIP7204     0.2052
 40975 OH2        -31.2580   -19.2220    46.0500 O.3    7355  TIP7205    -0.4105
 40976 H1         -30.7380   -19.8740    46.5200 H      7355  TIP7205     0.2052
 40977 H2         -30.8240   -18.3890    46.2380 H      7355  TIP7205     0.2052
 40978 OH2         32.4360     0.9460    36.1680 O.3    7356  TIP7206    -0.4105
 40979 H1          31.9810     1.7460    35.9060 H      7356  TIP7206     0.2052
 40980 H2          31.9930     0.2490    35.6840 H      7356  TIP7206     0.2052
 40981 OH2          5.3560   -28.3780    27.1970 O.3    7357  TIP7207    -0.4105
 40982 H1           4.8160   -27.6820    26.8230 H      7357  TIP7207     0.2052
 40983 H2           4.9690   -29.1870    26.8640 H      7357  TIP7207     0.2052
 40984 OH2         -6.3730    31.2260   -30.7770 O.3    7358  TIP7208    -0.4105
 40985 H1          -6.9650    31.9570   -30.5960 H      7358  TIP7208     0.2052
 40986 H2          -5.7140    31.2740   -30.0840 H      7358  TIP7208     0.2052
 40987 OH2        -12.9330   -19.2840    20.4530 O.3    7359  TIP7209    -0.4105
 40988 H1         -13.8840   -19.1810    20.4110 H      7359  TIP7209     0.2052
 40989 H2         -12.7320   -19.2750    21.3890 H      7359  TIP7209     0.2052
 40990 OH2         31.6950    13.5510    32.1130 O.3    7360  TIP7210    -0.4105
 40991 H1          31.5000    14.4780    32.2460 H      7360  TIP7210     0.2052
 40992 H2          32.2680    13.3190    32.8430 H      7360  TIP7210     0.2052
 40993 OH2         25.6890    11.0550   -46.3290 O.3    7361  TIP7211    -0.4105
 40994 H1          25.4970    10.4370   -45.6230 H      7361  TIP7211     0.2052
 40995 H2          24.9720    10.9370   -46.9520 H      7361  TIP7211     0.2052
 40996 OH2        -31.4170   -11.9650   -26.0840 O.3    7362  TIP7212    -0.4105
 40997 H1         -30.9980   -12.8040   -25.8940 H      7362  TIP7212     0.2052
 40998 H2         -31.3960   -11.4920   -25.2520 H      7362  TIP7212     0.2052
 40999 OH2         16.7950   -24.7520   -23.8410 O.3    7363  TIP7213    -0.4105
 41000 H1          15.8960   -25.0130   -23.6400 H      7363  TIP7213     0.2052
 41001 H2          17.1490   -24.4470   -23.0050 H      7363  TIP7213     0.2052
 41002 OH2         -0.7080   -21.3090   -24.4640 O.3    7364  TIP7214    -0.4105
 41003 H1          -1.4690   -21.5400   -23.9320 H      7364  TIP7214     0.2052
 41004 H2          -1.0660   -20.7930   -25.1860 H      7364  TIP7214     0.2052
 41005 OH2         30.0000     0.0580   -43.7380 O.3    7365  TIP7215    -0.4105
 41006 H1          30.3970     0.8220   -44.1570 H      7365  TIP7215     0.2052
 41007 H2          30.7410    -0.4270   -43.3740 H      7365  TIP7215     0.2052
 41008 OH2         -7.2530   -20.5990   -36.0250 O.3    7366  TIP7216    -0.4105
 41009 H1          -8.1220   -20.4260   -35.6630 H      7366  TIP7216     0.2052
 41010 H2          -7.3570   -21.4120   -36.5210 H      7366  TIP7216     0.2052
 41011 OH2         20.1240    12.5630    29.0650 O.3    7367  TIP7217    -0.4105
 41012 H1          20.1270    12.8150    28.1420 H      7367  TIP7217     0.2052
 41013 H2          21.0420    12.6170    29.3310 H      7367  TIP7217     0.2052
 41014 OH2        -12.5700   -22.8490    40.3760 O.3    7368  TIP7218    -0.4105
 41015 H1         -12.2340   -22.2580    41.0500 H      7368  TIP7218     0.2052
 41016 H2         -12.5810   -22.3210    39.5780 H      7368  TIP7218     0.2052
 41017 OH2         31.8180    19.5690   -43.2600 O.3    7369  TIP7219    -0.4105
 41018 H1          31.2820    20.2020   -42.7810 H      7369  TIP7219     0.2052
 41019 H2          31.2480    19.2550   -43.9620 H      7369  TIP7219     0.2052
 41020 OH2         10.4590   -14.4030    48.1580 O.3    7370  TIP7220    -0.4105
 41021 H1          11.0960   -14.8960    47.6410 H      7370  TIP7220     0.2052
 41022 H2           9.6090   -14.6630    47.8020 H      7370  TIP7220     0.2052
 41023 OH2          5.1170     7.3870    51.3260 O.3    7371  TIP7221    -0.4105
 41024 H1           5.6940     8.1450    51.2380 H      7371  TIP7221     0.2052
 41025 H2           5.1000     6.9950    50.4530 H      7371  TIP7221     0.2052
 41026 OH2          8.9040    29.3290   -49.3720 O.3    7372  TIP7222    -0.4105
 41027 H1           9.2400    30.1900   -49.6200 H      7372  TIP7222     0.2052
 41028 H2           9.1960    29.2090   -48.4690 H      7372  TIP7222     0.2052
 41029 OH2         32.3510     8.4900   -25.5070 O.3    7373  TIP7223    -0.4105
 41030 H1          31.8030     8.0780   -24.8400 H      7373  TIP7223     0.2052
 41031 H2          33.0690     8.8890   -25.0150 H      7373  TIP7223     0.2052
 41032 OH2         13.2900   -25.8600   -51.4060 O.3    7374  TIP7224    -0.4105
 41033 H1          12.8300   -26.5330   -50.9040 H      7374  TIP7224     0.2052
 41034 H2          14.1700   -26.2150   -51.5330 H      7374  TIP7224     0.2052
 41035 OH2          3.0550   -20.1170    44.1160 O.3    7375  TIP7225    -0.4105
 41036 H1           3.3270   -20.7870    44.7430 H      7375  TIP7225     0.2052
 41037 H2           3.7150   -20.1530    43.4240 H      7375  TIP7225     0.2052
 41038 OH2        -23.9370    29.7730    17.9680 O.3    7376  TIP7226    -0.4105
 41039 H1         -24.0450    30.6930    17.7280 H      7376  TIP7226     0.2052
 41040 H2         -24.5760    29.6300    18.6660 H      7376  TIP7226     0.2052
 41041 OH2         13.3460   -29.7440   -53.7440 O.3    7377  TIP7227    -0.4105
 41042 H1          13.5890   -30.6340   -53.9990 H      7377  TIP7227     0.2052
 41043 H2          14.0010   -29.4940   -53.0920 H      7377  TIP7227     0.2052
 41044 OH2         20.4250   -29.3920    32.5180 O.3    7378  TIP7228    -0.4105
 41045 H1          19.9330   -28.6900    32.0920 H      7378  TIP7228     0.2052
 41046 H2          20.3850   -30.1230    31.9010 H      7378  TIP7228     0.2052
 41047 OH2        -22.3110   -18.3250   -24.4030 O.3    7379  TIP7229    -0.4105
 41048 H1         -22.5570   -18.7290   -25.2360 H      7379  TIP7229     0.2052
 41049 H2         -22.9470   -18.6650   -23.7740 H      7379  TIP7229     0.2052
 41050 OH2        -28.5750    17.1190   -27.5440 O.3    7380  TIP7230    -0.4105
 41051 H1         -29.2700    17.6470   -27.1520 H      7380  TIP7230     0.2052
 41052 H2         -28.0390    16.8390   -26.8020 H      7380  TIP7230     0.2052
 41053 OH2         -9.4540    26.9650    43.3580 O.3    7381  TIP7231    -0.4105
 41054 H1         -10.1150    27.5770    43.0340 H      7381  TIP7231     0.2052
 41055 H2          -9.2560    27.2710    44.2430 H      7381  TIP7231     0.2052
 41056 OH2         30.7550     6.4130    53.9020 O.3    7382  TIP7232    -0.4105
 41057 H1          31.5120     6.9020    53.5790 H      7382  TIP7232     0.2052
 41058 H2          30.4380     5.9300    53.1380 H      7382  TIP7232     0.2052
 41059 OH2        -13.5900     3.3290    49.6070 O.3    7383  TIP7233    -0.4105
 41060 H1         -13.7710     3.6530    50.4890 H      7383  TIP7233     0.2052
 41061 H2         -14.0130     2.4710    49.5760 H      7383  TIP7233     0.2052
 41062 OH2         -5.1000    21.5540   -27.7360 O.3    7384  TIP7234    -0.4105
 41063 H1          -5.0540    20.7280   -28.2170 H      7384  TIP7234     0.2052
 41064 H2          -4.7660    21.3430   -26.8640 H      7384  TIP7234     0.2052
 41065 OH2        -16.0520    20.8800    31.0500 O.3    7385  TIP7235    -0.4105
 41066 H1         -15.4870    21.2200    31.7430 H      7385  TIP7235     0.2052
 41067 H2         -15.5250    20.2070    30.6190 H      7385  TIP7235     0.2052
 41068 OH2        -20.6270     9.5110    28.6100 O.3    7386  TIP7236    -0.4105
 41069 H1         -20.9890    10.1780    29.1930 H      7386  TIP7236     0.2052
 41070 H2         -20.8290     8.6810    29.0410 H      7386  TIP7236     0.2052
 41071 OH2         -4.3830     4.2820    31.5270 O.3    7387  TIP7237    -0.4105
 41072 H1          -3.5080     4.2220    31.1450 H      7387  TIP7237     0.2052
 41073 H2          -4.2630     4.0300    32.4420 H      7387  TIP7237     0.2052
 41074 OH2        -15.8960   -20.5030   -44.4620 O.3    7388  TIP7238    -0.4105
 41075 H1         -16.1940   -20.8300   -43.6130 H      7388  TIP7238     0.2052
 41076 H2         -15.5060   -21.2660   -44.8880 H      7388  TIP7238     0.2052
 41077 OH2         20.5500   -21.9190   -26.2500 O.3    7389  TIP7239    -0.4105
 41078 H1          19.7620   -22.3670   -26.5560 H      7389  TIP7239     0.2052
 41079 H2          21.1590   -21.9740   -26.9860 H      7389  TIP7239     0.2052
 41080 OH2        -31.2900     5.3940    22.7370 O.3    7390  TIP7240    -0.4105
 41081 H1         -30.8850     4.5910    23.0650 H      7390  TIP7240     0.2052
 41082 H2         -32.1220     5.1070    22.3600 H      7390  TIP7240     0.2052
 41083 OH2         -9.0270    25.6210    53.1540 O.3    7391  TIP7241    -0.4105
 41084 H1          -8.5990    26.2580    52.5820 H      7391  TIP7241     0.2052
 41085 H2          -9.6520    25.1710    52.5860 H      7391  TIP7241     0.2052
 41086 OH2        -24.7550   -20.1990    42.6070 O.3    7392  TIP7242    -0.4105
 41087 H1         -24.8290   -20.1760    41.6530 H      7392  TIP7242     0.2052
 41088 H2         -24.5580   -21.1130    42.8100 H      7392  TIP7242     0.2052
 41089 OH2        -31.3400     1.3980   -35.8960 O.3    7393  TIP7243    -0.4105
 41090 H1         -30.9800     1.5330   -36.7730 H      7393  TIP7243     0.2052
 41091 H2         -30.6980     0.8390   -35.4570 H      7393  TIP7243     0.2052
 41092 OH2          6.9680    -8.7680   -46.8630 O.3    7394  TIP7244    -0.4105
 41093 H1           6.6700    -8.2220   -46.1350 H      7394  TIP7244     0.2052
 41094 H2           6.3640    -9.5110   -46.8690 H      7394  TIP7244     0.2052
 41095 OH2          6.7050     0.0460    -1.9670 O.3    7395  TIP7245    -0.4105
 41096 H1           7.5780     0.3760    -1.7570 H      7395  TIP7245     0.2052
 41097 H2           6.1080     0.6300    -1.4990 H      7395  TIP7245     0.2052
 41098 OH2         10.7510   -21.7340    22.5560 O.3    7396  TIP7246    -0.4105
 41099 H1          10.9010   -21.3540    23.4220 H      7396  TIP7246     0.2052
 41100 H2          10.0350   -22.3560    22.6880 H      7396  TIP7246     0.2052
 41101 OH2        -32.0570     8.4220    50.1440 O.3    7397  TIP7247    -0.4105
 41102 H1         -31.6960     9.1740    49.6740 H      7397  TIP7247     0.2052
 41103 H2         -31.5190     7.6820    49.8610 H      7397  TIP7247     0.2052
 41104 OH2        -21.9830   -29.2780    26.5440 O.3    7398  TIP7248    -0.4105
 41105 H1         -22.1040   -28.8220    27.3760 H      7398  TIP7248     0.2052
 41106 H2         -21.6030   -30.1230    26.7860 H      7398  TIP7248     0.2052
 41107 OH2         27.0940   -17.1090    49.4160 O.3    7399  TIP7249    -0.4105
 41108 H1          26.9700   -16.1820    49.2150 H      7399  TIP7249     0.2052
 41109 H2          27.3420   -17.1230    50.3400 H      7399  TIP7249     0.2052
 41110 OH2         -0.6500    -2.6780   -45.2590 O.3    7400  TIP7250    -0.4105
 41111 H1          -1.1040    -3.1510   -45.9560 H      7400  TIP7250     0.2052
 41112 H2          -0.1070    -3.3410   -44.8340 H      7400  TIP7250     0.2052
 41113 OH2         24.2050   -26.8520   -34.4040 O.3    7401  TIP7251    -0.4105
 41114 H1          24.1680   -27.0630   -35.3370 H      7401  TIP7251     0.2052
 41115 H2          24.8300   -26.1290   -34.3470 H      7401  TIP7251     0.2052
 41116 OH2        -19.0860   -13.5010    28.0690 O.3    7402  TIP7252    -0.4105
 41117 H1         -18.4300   -13.6030    27.3790 H      7402  TIP7252     0.2052
 41118 H2         -19.2300   -14.3890    28.3960 H      7402  TIP7252     0.2052
 41119 OH2         14.4160    -0.4270   -34.9780 O.3    7403  TIP7253    -0.4105
 41120 H1          14.5250    -0.8630   -35.8230 H      7403  TIP7253     0.2052
 41121 H2          15.2560     0.0050   -34.8210 H      7403  TIP7253     0.2052
 41122 OH2        -22.1380    20.5920    27.4710 O.3    7404  TIP7254    -0.4105
 41123 H1         -22.1070    21.5310    27.2850 H      7404  TIP7254     0.2052
 41124 H2         -21.2590    20.3800    27.7830 H      7404  TIP7254     0.2052
 41125 OH2        -29.0250    -3.3160   -34.0780 O.3    7405  TIP7255    -0.4105
 41126 H1         -28.7580    -4.2070   -34.3030 H      7405  TIP7255     0.2052
 41127 H2         -28.7720    -3.2150   -33.1600 H      7405  TIP7255     0.2052
 41128 OH2          9.0310    17.9650    38.9440 O.3    7406  TIP7256    -0.4105
 41129 H1           9.9840    18.0400    38.8970 H      7406  TIP7256     0.2052
 41130 H2           8.7900    17.4710    38.1610 H      7406  TIP7256     0.2052
 41131 OH2         22.7430   -27.1420    26.0210 O.3    7407  TIP7257    -0.4105
 41132 H1          23.5300   -27.4610    25.5790 H      7407  TIP7257     0.2052
 41133 H2          22.1940   -26.8010    25.3150 H      7407  TIP7257     0.2052
 41134 OH2          6.2880    -0.4870    45.3310 O.3    7408  TIP7258    -0.4105
 41135 H1           5.4320    -0.4060    44.9110 H      7408  TIP7258     0.2052
 41136 H2           6.6750     0.3860    45.2560 H      7408  TIP7258     0.2052
 41137 OH2          5.0890   -32.5820   -40.9800 O.3    7409  TIP7259    -0.4105
 41138 H1           5.7820   -33.2250   -41.1300 H      7409  TIP7259     0.2052
 41139 H2           4.3660   -32.8740   -41.5350 H      7409  TIP7259     0.2052
 41140 OH2        -22.2500    -2.6670    49.5540 O.3    7410  TIP7260    -0.4105
 41141 H1         -21.6710    -2.5900    48.7960 H      7410  TIP7260     0.2052
 41142 H2         -22.7960    -3.4290    49.3630 H      7410  TIP7260     0.2052
 41143 OH2         30.4770    -1.9730   -18.7250 O.3    7411  TIP7261    -0.4105
 41144 H1          29.9010    -1.2120   -18.6580 H      7411  TIP7261     0.2052
 41145 H2          30.0400    -2.6510   -18.2100 H      7411  TIP7261     0.2052
 41146 OH2         -0.6070    -5.7940    55.3680 O.3    7412  TIP7262    -0.4105
 41147 H1          -0.1530    -4.9510    55.3760 H      7412  TIP7262     0.2052
 41148 H2          -1.4230    -5.6230    54.8970 H      7412  TIP7262     0.2052
 41149 OH2        -23.0770    -1.9580    22.2210 O.3    7413  TIP7263    -0.4105
 41150 H1         -23.0990    -2.2040    23.1460 H      7413  TIP7263     0.2052
 41151 H2         -22.2070    -2.2250    21.9230 H      7413  TIP7263     0.2052
 41152 OH2        -10.2640    12.2410   -24.9920 O.3    7414  TIP7264    -0.4105
 41153 H1         -11.0620    11.7670   -24.7590 H      7414  TIP7264     0.2052
 41154 H2         -10.3850    13.1140   -24.6170 H      7414  TIP7264     0.2052
 41155 OH2         21.6390   -24.5640    33.2640 O.3    7415  TIP7265    -0.4105
 41156 H1          21.0020   -24.7500    33.9540 H      7415  TIP7265     0.2052
 41157 H2          21.1750   -23.9850    32.6600 H      7415  TIP7265     0.2052
 41158 OH2        -19.6800    18.7780   -30.5070 O.3    7416  TIP7266    -0.4105
 41159 H1         -19.5620    18.0380   -31.1020 H      7416  TIP7266     0.2052
 41160 H2         -18.8660    18.8150   -30.0040 H      7416  TIP7266     0.2052
 41161 OH2         29.7280   -18.4890   -36.4280 O.3    7417  TIP7267    -0.4105
 41162 H1          29.3620   -17.9970   -37.1630 H      7417  TIP7267     0.2052
 41163 H2          30.6650   -18.5400   -36.6160 H      7417  TIP7267     0.2052
 41164 OH2         -4.5150   -17.3020    44.9830 O.3    7418  TIP7268    -0.4105
 41165 H1          -4.5080   -18.2490    44.8410 H      7418  TIP7268     0.2052
 41166 H2          -4.8470   -16.9390    44.1620 H      7418  TIP7268     0.2052
 41167 OH2        -21.6370    26.0700    34.7660 O.3    7419  TIP7269    -0.4105
 41168 H1         -20.9090    25.7170    34.2550 H      7419  TIP7269     0.2052
 41169 H2         -21.2880    26.8700    35.1600 H      7419  TIP7269     0.2052
 41170 OH2        -27.3750     9.5830   -29.8580 O.3    7420  TIP7270    -0.4105
 41171 H1         -27.2880     8.9600   -29.1370 H      7420  TIP7270     0.2052
 41172 H2         -27.1380     9.0810   -30.6380 H      7420  TIP7270     0.2052
 41173 OH2        -20.3130   -10.4610    27.4900 O.3    7421  TIP7271    -0.4105
 41174 H1         -20.9210    -9.8060    27.8320 H      7421  TIP7271     0.2052
 41175 H2         -19.8850   -10.0270    26.7510 H      7421  TIP7271     0.2052
 41176 OH2         13.6960    -8.9270    28.6200 O.3    7422  TIP7272    -0.4105
 41177 H1          12.7490    -8.8220    28.5360 H      7422  TIP7272     0.2052
 41178 H2          14.0150    -8.0540    28.8490 H      7422  TIP7272     0.2052
 41179 OH2         29.4990    17.7800    24.2380 O.3    7423  TIP7273    -0.4105
 41180 H1          29.4110    17.9630    25.1730 H      7423  TIP7273     0.2052
 41181 H2          28.7320    18.1890    23.8390 H      7423  TIP7273     0.2052
 41182 OH2          2.0220    23.6280    32.7150 O.3    7424  TIP7274    -0.4105
 41183 H1           1.0990    23.6470    32.4630 H      7424  TIP7274     0.2052
 41184 H2           2.1150    22.8240    33.2270 H      7424  TIP7274     0.2052
 41185 OH2         -8.7670    18.7580    27.0010 O.3    7425  TIP7275    -0.4105
 41186 H1          -8.2010    18.9500    26.2530 H      7425  TIP7275     0.2052
 41187 H2          -9.5060    19.3580    26.9030 H      7425  TIP7275     0.2052
 41188 OH2         26.2230   -24.1080   -44.9040 O.3    7426  TIP7276    -0.4105
 41189 H1          25.5940   -24.0020   -44.1900 H      7426  TIP7276     0.2052
 41190 H2          27.0260   -23.7010   -44.5790 H      7426  TIP7276     0.2052
 41191 OH2         -5.9740     9.0520    46.6720 O.3    7427  TIP7277    -0.4105
 41192 H1          -6.7880     8.6700    46.9990 H      7427  TIP7277     0.2052
 41193 H2          -5.3750     9.0160    47.4170 H      7427  TIP7277     0.2052
 41194 OH2          9.5500    -2.0490   -17.9290 O.3    7428  TIP7278    -0.4105
 41195 H1          10.4780    -2.2040   -18.1070 H      7428  TIP7278     0.2052
 41196 H2           9.3860    -2.4990   -17.1000 H      7428  TIP7278     0.2052
 41197 OH2        -26.0460     5.5920    36.1620 O.3    7429  TIP7279    -0.4105
 41198 H1         -25.8330     6.0730    36.9610 H      7429  TIP7279     0.2052
 41199 H2         -26.0590     4.6730    36.4300 H      7429  TIP7279     0.2052
 41200 OH2          2.3470   -17.7040   -49.9750 O.3    7430  TIP7280    -0.4105
 41201 H1           1.8730   -17.0580   -49.4520 H      7430  TIP7280     0.2052
 41202 H2           3.2310   -17.3470   -50.0540 H      7430  TIP7280     0.2052
 41203 OH2          1.0860    20.7270    50.0290 O.3    7431  TIP7281    -0.4105
 41204 H1           1.8080    20.6970    49.4020 H      7431  TIP7281     0.2052
 41205 H2           1.5120    20.8060    50.8820 H      7431  TIP7281     0.2052
 41206 OH2         -2.5450    14.9180    41.5210 O.3    7432  TIP7282    -0.4105
 41207 H1          -3.2210    14.3300    41.8590 H      7432  TIP7282     0.2052
 41208 H2          -2.8050    15.0870    40.6150 H      7432  TIP7282     0.2052
 41209 OH2         11.5490     3.4920   -45.9860 O.3    7433  TIP7283    -0.4105
 41210 H1          11.2510     4.3780   -45.7790 H      7433  TIP7283     0.2052
 41211 H2          12.2720     3.3340   -45.3790 H      7433  TIP7283     0.2052
 41212 OH2          6.8040   -25.1250   -38.7450 O.3    7434  TIP7284    -0.4105
 41213 H1           7.3960   -24.5730   -39.2550 H      7434  TIP7284     0.2052
 41214 H2           6.8270   -25.9740   -39.1870 H      7434  TIP7284     0.2052
 41215 OH2        -10.5980   -30.2420    40.6100 O.3    7435  TIP7285    -0.4105
 41216 H1         -10.0110   -29.7720    40.0180 H      7435  TIP7285     0.2052
 41217 H2         -10.4340   -31.1670    40.4260 H      7435  TIP7285     0.2052
 41218 OH2         22.6930    18.4150   -21.7470 O.3    7436  TIP7286    -0.4105
 41219 H1          22.8900    19.2170   -21.2630 H      7436  TIP7286     0.2052
 41220 H2          21.7690    18.2460   -21.5630 H      7436  TIP7286     0.2052
 41221 OH2         -3.1620     4.3620    38.8940 O.3    7437  TIP7287    -0.4105
 41222 H1          -3.9620     4.3890    38.3700 H      7437  TIP7287     0.2052
 41223 H2          -3.1730     3.4970    39.3050 H      7437  TIP7287     0.2052
 41224 OH2        -21.6240    21.0050   -37.6070 O.3    7438  TIP7288    -0.4105
 41225 H1         -21.6460    21.1950   -36.6690 H      7438  TIP7288     0.2052
 41226 H2         -21.8200    21.8440   -38.0260 H      7438  TIP7288     0.2052
 41227 OH2         29.2200    19.0630    26.8410 O.3    7439  TIP7289    -0.4105
 41228 H1          29.6360    19.9000    26.6350 H      7439  TIP7289     0.2052
 41229 H2          29.5140    18.8610    27.7300 H      7439  TIP7289     0.2052
 41230 OH2         13.6560    10.7410    44.5810 O.3    7440  TIP7290    -0.4105
 41231 H1          13.4760    11.6810    44.5940 H      7440  TIP7290     0.2052
 41232 H2          14.5880    10.6780    44.3750 H      7440  TIP7290     0.2052
 41233 OH2         -9.7870    30.3870    46.7200 O.3    7441  TIP7291    -0.4105
 41234 H1         -10.2170    29.5950    47.0430 H      7441  TIP7291     0.2052
 41235 H2          -9.2230    30.0800    46.0100 H      7441  TIP7291     0.2052
 41236 OH2          5.1820     3.6200   -40.2870 O.3    7442  TIP7292    -0.4105
 41237 H1           4.3370     3.1720   -40.2400 H      7442  TIP7292     0.2052
 41238 H2           5.0940     4.3620   -39.6890 H      7442  TIP7292     0.2052
 41239 OH2        -20.1470    -1.0010    50.4190 O.3    7443  TIP7293    -0.4105
 41240 H1         -19.3130    -1.1300    49.9670 H      7443  TIP7293     0.2052
 41241 H2         -20.8110    -1.1820    49.7540 H      7443  TIP7293     0.2052
 41242 OH2        -19.2350     4.0850    46.5850 O.3    7444  TIP7294    -0.4105
 41243 H1         -18.5250     4.6150    46.2230 H      7444  TIP7294     0.2052
 41244 H2         -18.8480     3.2180    46.7080 H      7444  TIP7294     0.2052
 41245 OH2        -30.7970     5.6290   -41.0460 O.3    7445  TIP7295    -0.4105
 41246 H1         -30.1100     4.9720   -41.1570 H      7445  TIP7295     0.2052
 41247 H2         -30.7370     5.8850   -40.1250 H      7445  TIP7295     0.2052
 41248 OH2          8.1480   -22.9470    22.8910 O.3    7446  TIP7296    -0.4105
 41249 H1           7.5040   -23.4880    23.3480 H      7446  TIP7296     0.2052
 41250 H2           7.7220   -22.0940    22.7990 H      7446  TIP7296     0.2052
 41251 OH2         -6.2500    26.0850    47.0460 O.3    7447  TIP7297    -0.4105
 41252 H1          -5.6370    25.6170    46.4800 H      7447  TIP7297     0.2052
 41253 H2          -6.7700    26.6200    46.4470 H      7447  TIP7297     0.2052
 41254 OH2         18.7620   -11.5740   -27.2330 O.3    7448  TIP7298    -0.4105
 41255 H1          18.2000   -10.8980   -26.8550 H      7448  TIP7298     0.2052
 41256 H2          18.3800   -11.7520   -28.0920 H      7448  TIP7298     0.2052
 41257 OH2        -15.9670   -33.0490    30.7930 O.3    7449  TIP7299    -0.4105
 41258 H1         -15.2010   -33.3650    31.2720 H      7449  TIP7299     0.2052
 41259 H2         -15.9180   -33.4910    29.9450 H      7449  TIP7299     0.2052
 41260 OH2         29.5040    -0.2750    52.4110 O.3    7450  TIP7300    -0.4105
 41261 H1          29.0890     0.2030    53.1290 H      7450  TIP7300     0.2052
 41262 H2          29.8110    -1.0890    52.8110 H      7450  TIP7300     0.2052
 41263 OH2          5.3170    26.3110   -19.4650 O.3    7451  TIP7301    -0.4105
 41264 H1           5.7300    26.9160   -20.0810 H      7451  TIP7301     0.2052
 41265 H2           4.4740    26.7170   -19.2590 H      7451  TIP7301     0.2052
 41266 OH2         15.9570    14.1810    50.5310 O.3    7452  TIP7302    -0.4105
 41267 H1          15.3270    14.0640    51.2430 H      7452  TIP7302     0.2052
 41268 H2          15.9530    13.3440    50.0670 H      7452  TIP7302     0.2052
 41269 OH2         15.4480     8.2250    31.8400 O.3    7453  TIP7303    -0.4105
 41270 H1          14.8320     8.2160    31.1080 H      7453  TIP7303     0.2052
 41271 H2          15.4080     7.3380    32.1990 H      7453  TIP7303     0.2052
 41272 OH2        -13.0690   -26.5910   -26.3950 O.3    7454  TIP7304    -0.4105
 41273 H1         -13.8810   -26.7770   -25.9240 H      7454  TIP7304     0.2052
 41274 H2         -12.4000   -27.0900   -25.9280 H      7454  TIP7304     0.2052
 41275 OH2        -27.7880     0.4420    29.9300 O.3    7455  TIP7305    -0.4105
 41276 H1         -26.9800     0.6360    30.4050 H      7455  TIP7305     0.2052
 41277 H2         -28.0210    -0.4450    30.2050 H      7455  TIP7305     0.2052
 41278 OH2         -7.0900   -27.1550   -25.3820 O.3    7456  TIP7306    -0.4105
 41279 H1          -6.9400   -27.6730   -24.5910 H      7456  TIP7306     0.2052
 41280 H2          -7.6180   -26.4130   -25.0870 H      7456  TIP7306     0.2052
 41281 OH2          0.9380   -24.5480    46.2550 O.3    7457  TIP7307    -0.4105
 41282 H1           0.1970   -25.1350    46.1070 H      7457  TIP7307     0.2052
 41283 H2           1.7060   -25.0660    46.0140 H      7457  TIP7307     0.2052
 41284 OH2          1.2850   -24.0750   -31.4950 O.3    7458  TIP7308    -0.4105
 41285 H1           1.5420   -23.7140   -30.6470 H      7458  TIP7308     0.2052
 41286 H2           2.0900   -24.0700   -32.0120 H      7458  TIP7308     0.2052
 41287 OH2         26.8630    20.3740    52.7240 O.3    7459  TIP7309    -0.4105
 41288 H1          26.6220    19.7930    53.4460 H      7459  TIP7309     0.2052
 41289 H2          26.9130    21.2430    53.1210 H      7459  TIP7309     0.2052
 41290 OH2         -1.9800    -9.6700   -22.5950 O.3    7460  TIP7310    -0.4105
 41291 H1          -2.3460    -9.9690   -23.4270 H      7460  TIP7310     0.2052
 41292 H2          -1.3420   -10.3440   -22.3570 H      7460  TIP7310     0.2052
 41293 OH2        -31.9730    -6.4030   -54.5420 O.3    7461  TIP7311    -0.4105
 41294 H1         -32.6060    -6.0880   -53.8960 H      7461  TIP7311     0.2052
 41295 H2         -32.4210    -7.1240   -54.9850 H      7461  TIP7311     0.2052
 41296 OH2         27.4940    22.6590    53.9450 O.3    7462  TIP7312    -0.4105
 41297 H1          27.1650    22.4860    54.8270 H      7462  TIP7312     0.2052
 41298 H2          28.4440    22.5660    54.0210 H      7462  TIP7312     0.2052
 41299 OH2         25.5120     6.9750    55.0170 O.3    7463  TIP7313    -0.4105
 41300 H1          24.8990     6.3540    54.6250 H      7463  TIP7313     0.2052
 41301 H2          26.3750     6.5850    54.8730 H      7463  TIP7313     0.2052
 41302 OH2         25.6020    31.4550   -27.9230 O.3    7464  TIP7314    -0.4105
 41303 H1          26.1140    30.6790   -27.6940 H      7464  TIP7314     0.2052
 41304 H2          24.7820    31.1060   -28.2730 H      7464  TIP7314     0.2052
 41305 OH2        -20.4070    16.3580    33.4880 O.3    7465  TIP7315    -0.4105
 41306 H1         -21.1270    16.9870    33.5350 H      7465  TIP7315     0.2052
 41307 H2         -19.7450    16.7060    34.0860 H      7465  TIP7315     0.2052
 41308 OH2         12.1990   -14.4080    38.6100 O.3    7466  TIP7316    -0.4105
 41309 H1          11.9780   -13.9240    37.8140 H      7466  TIP7316     0.2052
 41310 H2          13.1320   -14.2400    38.7420 H      7466  TIP7316     0.2052
 41311 OH2         -7.3350   -24.7150    33.8860 O.3    7467  TIP7317    -0.4105
 41312 H1          -6.9050   -24.4480    33.0740 H      7467  TIP7317     0.2052
 41313 H2          -6.6150   -24.8870    34.4930 H      7467  TIP7317     0.2052
 41314 OH2        -12.6280    -5.6500   -34.3190 O.3    7468  TIP7318    -0.4105
 41315 H1         -13.5510    -5.8890   -34.3990 H      7468  TIP7318     0.2052
 41316 H2         -12.1520    -6.4260   -34.6160 H      7468  TIP7318     0.2052
 41317 OH2          2.0680   -31.8370   -44.7080 O.3    7469  TIP7319    -0.4105
 41318 H1           1.9470   -30.9290   -44.4300 H      7469  TIP7319     0.2052
 41319 H2           2.0840   -31.7950   -45.6640 H      7469  TIP7319     0.2052
 41320 OH2        -25.3580    16.5680    22.3520 O.3    7470  TIP7320    -0.4105
 41321 H1         -24.7680    16.2850    21.6540 H      7470  TIP7320     0.2052
 41322 H2         -26.1280    16.9050    21.8940 H      7470  TIP7320     0.2052
 41323 OH2        -19.5190     7.3020    38.6780 O.3    7471  TIP7321    -0.4105
 41324 H1         -20.0600     6.5700    38.9750 H      7471  TIP7321     0.2052
 41325 H2         -18.7560     7.2880    39.2560 H      7471  TIP7321     0.2052
 41326 OH2         18.8140    32.5190    42.0490 O.3    7472  TIP7322    -0.4105
 41327 H1          18.3860    32.4580    41.1950 H      7472  TIP7322     0.2052
 41328 H2          18.9840    31.6110    42.2980 H      7472  TIP7322     0.2052
 41329 OH2         -4.3130    25.4200    48.7960 O.3    7473  TIP7323    -0.4105
 41330 H1          -5.0400    25.6040    48.2010 H      7473  TIP7323     0.2052
 41331 H2          -3.5400    25.4040    48.2320 H      7473  TIP7323     0.2052
 41332 OH2         10.4920    11.4670   -19.5990 O.3    7474  TIP7324    -0.4105
 41333 H1           9.6560    11.3870   -19.1400 H      7474  TIP7324     0.2052
 41334 H2          10.5470    10.6770   -20.1370 H      7474  TIP7324     0.2052
 41335 OH2        -10.6530     8.9480    51.8450 O.3    7475  TIP7325    -0.4105
 41336 H1         -11.1650     8.9430    52.6540 H      7475  TIP7325     0.2052
 41337 H2         -10.7470     8.0620    51.4970 H      7475  TIP7325     0.2052
 41338 OH2        -17.9180    28.5140   -53.7350 O.3    7476  TIP7326    -0.4105
 41339 H1         -18.7140    28.1590   -53.3390 H      7476  TIP7326     0.2052
 41340 H2         -17.3790    28.7830   -52.9910 H      7476  TIP7326     0.2052
 41341 OH2         27.7050   -26.4320   -47.6830 O.3    7477  TIP7327    -0.4105
 41342 H1          27.9590   -27.2130   -47.1910 H      7477  TIP7327     0.2052
 41343 H2          26.7680   -26.3350   -47.5120 H      7477  TIP7327     0.2052
 41344 OH2         -2.0180   -25.8160    25.3820 O.3    7478  TIP7328    -0.4105
 41345 H1          -2.9440   -25.9980    25.5440 H      7478  TIP7328     0.2052
 41346 H2          -1.7280   -26.5320    24.8180 H      7478  TIP7328     0.2052
 41347 OH2        -21.1140   -30.0420    15.6330 O.3    7479  TIP7329    -0.4105
 41348 H1         -21.6270   -30.1110    16.4380 H      7479  TIP7329     0.2052
 41349 H2         -20.8760   -29.1170    15.5790 H      7479  TIP7329     0.2052
 41350 OH2         -8.3960    18.8290   -26.3410 O.3    7480  TIP7330    -0.4105
 41351 H1          -9.1150    18.9620   -25.7230 H      7480  TIP7330     0.2052
 41352 H2          -8.7960    18.3680   -27.0780 H      7480  TIP7330     0.2052
 41353 OH2        -12.6250    28.0980   -49.5460 O.3    7481  TIP7331    -0.4105
 41354 H1         -12.1000    28.8980   -49.5170 H      7481  TIP7331     0.2052
 41355 H2         -12.2420    27.5350   -48.8730 H      7481  TIP7331     0.2052
 41356 OH2        -19.6870    26.3430    52.0990 O.3    7482  TIP7332    -0.4105
 41357 H1         -19.6500    26.6850    52.9920 H      7482  TIP7332     0.2052
 41358 H2         -20.6050    26.1050    51.9710 H      7482  TIP7332     0.2052
 41359 OH2          6.6450     1.0760    49.2730 O.3    7483  TIP7333    -0.4105
 41360 H1           7.5930     1.2080    49.2510 H      7483  TIP7333     0.2052
 41361 H2           6.5070     0.2440    48.8210 H      7483  TIP7333     0.2052
 41362 OH2        -29.7910     3.8960    49.2880 O.3    7484  TIP7334    -0.4105
 41363 H1         -30.6460     4.2750    49.0870 H      7484  TIP7334     0.2052
 41364 H2         -29.3090     3.9380    48.4620 H      7484  TIP7334     0.2052
 41365 OH2        -28.7730   -28.8750    33.4140 O.3    7485  TIP7335    -0.4105
 41366 H1         -27.9080   -28.9060    33.8230 H      7485  TIP7335     0.2052
 41367 H2         -29.2950   -28.3240    33.9960 H      7485  TIP7335     0.2052
 41368 OH2        -17.1830    20.2800    21.4870 O.3    7486  TIP7336    -0.4105
 41369 H1         -16.9170    19.3680    21.3740 H      7486  TIP7336     0.2052
 41370 H2         -16.5950    20.7750    20.9170 H      7486  TIP7336     0.2052
 41371 OH2         16.9220    -6.3030   -50.2760 O.3    7487  TIP7337    -0.4105
 41372 H1          16.3470    -5.5420   -50.1960 H      7487  TIP7337     0.2052
 41373 H2          16.6050    -6.7630   -51.0530 H      7487  TIP7337     0.2052
 41374 OH2         -9.7940    19.4400   -33.4450 O.3    7488  TIP7338    -0.4105
 41375 H1         -10.6710    19.0660   -33.5310 H      7488  TIP7338     0.2052
 41376 H2          -9.6800    19.5680   -32.5030 H      7488  TIP7338     0.2052
 41377 OH2          4.6630   -20.3410   -24.6600 O.3    7489  TIP7339    -0.4105
 41378 H1           3.9990   -19.7490   -24.3070 H      7489  TIP7339     0.2052
 41379 H2           5.0530   -19.8580   -25.3880 H      7489  TIP7339     0.2052
 41380 OH2         25.3430    15.9150    35.5620 O.3    7490  TIP7340    -0.4105
 41381 H1          26.0630    15.2890    35.6320 H      7490  TIP7340     0.2052
 41382 H2          24.8190    15.7670    36.3490 H      7490  TIP7340     0.2052
 41383 OH2          4.3270     9.9970    33.6570 O.3    7491  TIP7341    -0.4105
 41384 H1           4.4200    10.3040    32.7550 H      7491  TIP7341     0.2052
 41385 H2           5.0920     9.4400    33.8010 H      7491  TIP7341     0.2052
 41386 OH2          2.5050    11.8370   -41.0100 O.3    7492  TIP7342    -0.4105
 41387 H1           1.8660    11.6020   -40.3370 H      7492  TIP7342     0.2052
 41388 H2           2.1590    11.4510   -41.8140 H      7492  TIP7342     0.2052
 41389 OH2        -15.6600    27.8580    36.7200 O.3    7493  TIP7343    -0.4105
 41390 H1         -15.3610    27.1320    36.1730 H      7493  TIP7343     0.2052
 41391 H2         -15.2080    27.7340    37.5540 H      7493  TIP7343     0.2052
 41392 OH2        -20.3080    29.7650   -42.5940 O.3    7494  TIP7344    -0.4105
 41393 H1         -19.8200    29.1310   -43.1190 H      7494  TIP7344     0.2052
 41394 H2         -20.1010    30.6130   -42.9880 H      7494  TIP7344     0.2052
 41395 OH2        -22.5220    -8.9700    28.4360 O.3    7495  TIP7345    -0.4105
 41396 H1         -22.5400    -8.0630    28.1330 H      7495  TIP7345     0.2052
 41397 H2         -23.4200    -9.1480    28.7160 H      7495  TIP7345     0.2052
 41398 OH2         12.3590    -2.4420    32.9690 O.3    7496  TIP7346    -0.4105
 41399 H1          12.8380    -2.6990    33.7560 H      7496  TIP7346     0.2052
 41400 H2          12.9720    -1.8880    32.4850 H      7496  TIP7346     0.2052
 41401 OH2         29.9530    30.5430   -28.7100 O.3    7497  TIP7347    -0.4105
 41402 H1          29.0900    30.2350   -28.4350 H      7497  TIP7347     0.2052
 41403 H2          29.9780    31.4610   -28.4390 H      7497  TIP7347     0.2052
 41404 OH2        -24.6940   -12.7980    47.7560 O.3    7498  TIP7348    -0.4105
 41405 H1         -25.0190   -13.3810    47.0700 H      7498  TIP7348     0.2052
 41406 H2         -23.8080   -12.5670    47.4760 H      7498  TIP7348     0.2052
 41407 OH2         -3.0500   -13.4300   -27.4120 O.3    7499  TIP7349    -0.4105
 41408 H1          -3.3300   -13.6380   -28.3040 H      7499  TIP7349     0.2052
 41409 H2          -2.9850   -14.2800   -26.9770 H      7499  TIP7349     0.2052
 41410 OH2          7.4930    11.5750   -29.7080 O.3    7500  TIP7350    -0.4105
 41411 H1           6.5780    11.3040   -29.7740 H      7500  TIP7350     0.2052
 41412 H2           7.5500    12.0300   -28.8680 H      7500  TIP7350     0.2052
 41413 OH2        -19.0970    -4.0580    34.3810 O.3    7501  TIP7351    -0.4105
 41414 H1         -20.0350    -4.2090    34.4950 H      7501  TIP7351     0.2052
 41415 H2         -19.0030    -3.1050    34.3960 H      7501  TIP7351     0.2052
 41416 OH2         14.9730    -6.9010   -25.5160 O.3    7502  TIP7352    -0.4105
 41417 H1          15.5810    -7.6410   -25.5100 H      7502  TIP7352     0.2052
 41418 H2          15.5330    -6.1290   -25.4420 H      7502  TIP7352     0.2052
 41419 OH2         26.4190   -29.2050   -41.8080 O.3    7503  TIP7353    -0.4105
 41420 H1          25.6010   -29.1410   -41.3160 H      7503  TIP7353     0.2052
 41421 H2          27.0130   -29.6790   -41.2260 H      7503  TIP7353     0.2052
 41422 OH2        -29.0810    22.4400    48.0550 O.3    7504  TIP7354    -0.4105
 41423 H1         -29.4630    23.1150    47.4940 H      7504  TIP7354     0.2052
 41424 H2         -28.2020    22.7610    48.2540 H      7504  TIP7354     0.2052
 41425 OH2         -7.0860     7.5780   -42.0400 O.3    7505  TIP7355    -0.4105
 41426 H1          -6.6040     8.3810   -42.2390 H      7505  TIP7355     0.2052
 41427 H2          -6.4070     6.9330   -41.8420 H      7505  TIP7355     0.2052
 41428 OH2         15.5940   -27.3260   -51.6670 O.3    7506  TIP7356    -0.4105
 41429 H1          15.5650   -28.2580   -51.8820 H      7506  TIP7356     0.2052
 41430 H2          16.5050   -27.1640   -51.4240 H      7506  TIP7356     0.2052
 41431 OH2         -7.2620    17.1580   -36.6770 O.3    7507  TIP7357    -0.4105
 41432 H1          -7.8710    17.7690   -36.2620 H      7507  TIP7357     0.2052
 41433 H2          -7.7070    16.8830   -37.4790 H      7507  TIP7357     0.2052
 41434 OH2         10.4040     8.4670   -50.3620 O.3    7508  TIP7358    -0.4105
 41435 H1          11.0330     7.8020   -50.6410 H      7508  TIP7358     0.2052
 41436 H2          10.1700     8.9290   -51.1660 H      7508  TIP7358     0.2052
 41437 OH2          7.2180    25.8360    53.5040 O.3    7509  TIP7359    -0.4105
 41438 H1           7.9480    25.2250    53.6130 H      7509  TIP7359     0.2052
 41439 H2           7.5960    26.6960    53.6860 H      7509  TIP7359     0.2052
 41440 OH2         -6.1830   -12.5530   -33.1870 O.3    7510  TIP7360    -0.4105
 41441 H1          -6.0150   -13.3510   -33.6890 H      7510  TIP7360     0.2052
 41442 H2          -6.1210   -11.8480   -33.8310 H      7510  TIP7360     0.2052
 41443 OH2        -24.8780    27.3230    23.4720 O.3    7511  TIP7361    -0.4105
 41444 H1         -25.8140    27.2680    23.2770 H      7511  TIP7361     0.2052
 41445 H2         -24.7750    26.8410    24.2930 H      7511  TIP7361     0.2052
 41446 OH2         -8.3360     4.5530   -28.4810 O.3    7512  TIP7362    -0.4105
 41447 H1          -8.7230     3.6980   -28.2940 H      7512  TIP7362     0.2052
 41448 H2          -7.9020     4.4400   -29.3270 H      7512  TIP7362     0.2052
 41449 OH2        -24.3670   -28.0080   -25.2170 O.3    7513  TIP7363    -0.4105
 41450 H1         -23.9310   -27.5260   -24.5140 H      7513  TIP7363     0.2052
 41451 H2         -24.9810   -28.5870   -24.7650 H      7513  TIP7363     0.2052
 41452 OH2         30.2770    -4.7190   -21.6420 O.3    7514  TIP7364    -0.4105
 41453 H1          30.4510    -4.9880   -22.5440 H      7514  TIP7364     0.2052
 41454 H2          29.3380    -4.5330   -21.6240 H      7514  TIP7364     0.2052
 41455 OH2        -31.8410    32.6590   -40.8850 O.3    7515  TIP7365    -0.4105
 41456 H1         -32.7520    32.4820   -41.1220 H      7515  TIP7365     0.2052
 41457 H2         -31.8980    33.2100   -40.1050 H      7515  TIP7365     0.2052
 41458 OH2         12.2210   -15.7910    46.2850 O.3    7516  TIP7366    -0.4105
 41459 H1          12.2680   -16.2790    45.4630 H      7516  TIP7366     0.2052
 41460 H2          12.3210   -14.8750    46.0260 H      7516  TIP7366     0.2052
 41461 OH2         24.6460   -25.4830    24.3000 O.3    7517  TIP7367    -0.4105
 41462 H1          24.9140   -26.2140    24.8570 H      7517  TIP7367     0.2052
 41463 H2          24.6540   -25.8420    23.4130 H      7517  TIP7367     0.2052
 41464 OH2         -6.4250    11.6000   -46.5070 O.3    7518  TIP7368    -0.4105
 41465 H1          -7.0640    11.0630   -46.0380 H      7518  TIP7368     0.2052
 41466 H2          -5.6730    11.0220   -46.6340 H      7518  TIP7368     0.2052
 41467 OH2         -2.8620     0.4660    55.0870 O.3    7519  TIP7369    -0.4105
 41468 H1          -2.9450    -0.4180    54.7280 H      7519  TIP7369     0.2052
 41469 H2          -2.1010     0.8360    54.6400 H      7519  TIP7369     0.2052
 41470 OH2         26.6070    11.4090   -22.4070 O.3    7520  TIP7370    -0.4105
 41471 H1          27.2250    11.6650   -21.7220 H      7520  TIP7370     0.2052
 41472 H2          25.9460    12.1010   -22.4060 H      7520  TIP7370     0.2052
 41473 OH2         16.2860   -20.7190   -21.9560 O.3    7521  TIP7371    -0.4105
 41474 H1          15.7430   -20.9520   -21.2030 H      7521  TIP7371     0.2052
 41475 H2          15.9080   -21.2120   -22.6850 H      7521  TIP7371     0.2052
 41476 OH2          8.4700     5.3490    -8.6930 O.3    7522  TIP7372    -0.4105
 41477 H1           9.0230     5.6880    -9.3970 H      7522  TIP7372     0.2052
 41478 H2           7.6280     5.7870    -8.8160 H      7522  TIP7372     0.2052
 41479 OH2        -24.5860    -8.7660    53.7620 O.3    7523  TIP7373    -0.4105
 41480 H1         -24.2450    -9.5270    53.2930 H      7523  TIP7373     0.2052
 41481 H2         -25.2580    -9.1230    54.3430 H      7523  TIP7373     0.2052
 41482 OH2        -28.4970    12.9960    53.3150 O.3    7524  TIP7374    -0.4105
 41483 H1         -28.4630    12.3930    54.0580 H      7524  TIP7374     0.2052
 41484 H2         -28.8190    13.8170    53.6870 H      7524  TIP7374     0.2052
 41485 OH2         -8.1470    -9.8300   -15.9760 O.3    7525  TIP7375    -0.4105
 41486 H1          -8.2210   -10.7440   -15.7030 H      7525  TIP7375     0.2052
 41487 H2          -7.9490    -9.8740   -16.9110 H      7525  TIP7375     0.2052
 41488 OH2         31.9520   -10.9630   -42.1590 O.3    7526  TIP7376    -0.4105
 41489 H1          31.2600   -10.3410   -42.3850 H      7526  TIP7376     0.2052
 41490 H2          32.3840   -11.1540   -42.9910 H      7526  TIP7376     0.2052
 41491 OH2         -5.3690    28.6700    48.5370 O.3    7527  TIP7377    -0.4105
 41492 H1          -5.7880    28.0080    47.9870 H      7527  TIP7377     0.2052
 41493 H2          -4.4770    28.3450    48.6650 H      7527  TIP7377     0.2052
 41494 OH2        -15.8710     2.4840    25.0750 O.3    7528  TIP7378    -0.4105
 41495 H1         -16.0000     1.5930    25.4010 H      7528  TIP7378     0.2052
 41496 H2         -15.2190     2.3930    24.3810 H      7528  TIP7378     0.2052
 41497 OH2         13.3930    15.5600   -47.1540 O.3    7529  TIP7379    -0.4105
 41498 H1          12.4520    15.7250   -47.2100 H      7529  TIP7379     0.2052
 41499 H2          13.4910    14.9830   -46.3970 H      7529  TIP7379     0.2052
 41500 OH2        -19.4210    17.6630   -40.8790 O.3    7530  TIP7380    -0.4105
 41501 H1         -19.8610    18.4350   -40.5240 H      7530  TIP7380     0.2052
 41502 H2         -19.4920    17.7610   -41.8280 H      7530  TIP7380     0.2052
 41503 OH2        -10.9330    -5.6180    39.6280 O.3    7531  TIP7381    -0.4105
 41504 H1         -11.3010    -6.1320    40.3460 H      7531  TIP7381     0.2052
 41505 H2         -11.5680    -5.7090    38.9170 H      7531  TIP7381     0.2052
 41506 OH2        -15.6930    10.0860    47.2510 O.3    7532  TIP7382    -0.4105
 41507 H1         -15.0190     9.6020    46.7730 H      7532  TIP7382     0.2052
 41508 H2         -15.4920     9.9280    48.1730 H      7532  TIP7382     0.2052
 41509 OH2         10.6770    15.6660    31.0830 O.3    7533  TIP7383    -0.4105
 41510 H1           9.8220    15.2880    31.2880 H      7533  TIP7383     0.2052
 41511 H2          10.5270    16.6110    31.0810 H      7533  TIP7383     0.2052
 41512 OH2         28.7480    25.4650   -22.7830 O.3    7534  TIP7384    -0.4105
 41513 H1          28.2980    24.7050   -22.4140 H      7534  TIP7384     0.2052
 41514 H2          28.7410    26.1130   -22.0790 H      7534  TIP7384     0.2052
 41515 OH2         -3.6530   -30.8030   -54.0620 O.3    7535  TIP7385    -0.4105
 41516 H1          -4.1630   -31.5150   -54.4480 H      7535  TIP7385     0.2052
 41517 H2          -2.8120   -30.8360   -54.5180 H      7535  TIP7385     0.2052
 41518 OH2          8.1590   -16.6110    36.4260 O.3    7536  TIP7386    -0.4105
 41519 H1           7.7280   -15.7570    36.4000 H      7536  TIP7386     0.2052
 41520 H2           9.0810   -16.4200    36.2550 H      7536  TIP7386     0.2052
 41521 OH2         -0.6080     6.0570   -54.9040 O.3    7537  TIP7387    -0.4105
 41522 H1           0.0440     6.2510   -54.2300 H      7537  TIP7387     0.2052
 41523 H2          -0.1050     5.6660   -55.6190 H      7537  TIP7387     0.2052
 41524 OH2        -28.1570   -32.4650    32.1410 O.3    7538  TIP7388    -0.4105
 41525 H1         -27.4440   -31.8860    32.4110 H      7538  TIP7388     0.2052
 41526 H2         -27.8080   -33.3480    32.2650 H      7538  TIP7388     0.2052
 41527 OH2         11.1040    -9.0060    52.9440 O.3    7539  TIP7389    -0.4105
 41528 H1          10.7710    -8.1800    53.2940 H      7539  TIP7389     0.2052
 41529 H2          11.5170    -9.4350    53.6930 H      7539  TIP7389     0.2052
 41530 OH2         10.8050   -32.8910    46.5530 O.3    7540  TIP7390    -0.4105
 41531 H1          10.9490   -33.7870    46.8560 H      7540  TIP7390     0.2052
 41532 H2          10.1140   -32.9690    45.8950 H      7540  TIP7390     0.2052
 41533 OH2        -24.8090    21.5400    29.2860 O.3    7541  TIP7391    -0.4105
 41534 H1         -24.8880    20.8720    28.6050 H      7541  TIP7391     0.2052
 41535 H2         -25.7130    21.7780    29.4930 H      7541  TIP7391     0.2052
 41536 OH2         17.0090   -28.1090   -54.2650 O.3    7542  TIP7392    -0.4105
 41537 H1          16.6940   -28.6440   -53.5370 H      7542  TIP7392     0.2052
 41538 H2          17.9570   -28.2440   -54.2700 H      7542  TIP7392     0.2052
 41539 OH2         21.2930   -27.5720   -26.2520 O.3    7543  TIP7393    -0.4105
 41540 H1          21.5210   -27.4550   -25.3300 H      7543  TIP7393     0.2052
 41541 H2          21.1280   -28.5100   -26.3410 H      7543  TIP7393     0.2052
 41542 OH2        -19.0740    -2.5970   -18.2710 O.3    7544  TIP7394    -0.4105
 41543 H1         -19.8760    -2.4830   -18.7820 H      7544  TIP7394     0.2052
 41544 H2         -18.6600    -3.3760   -18.6440 H      7544  TIP7394     0.2052
 41545 OH2        -16.5340    -6.9770   -52.9490 O.3    7545  TIP7395    -0.4105
 41546 H1         -15.8210    -7.6080   -53.0460 H      7545  TIP7395     0.2052
 41547 H2         -16.1850    -6.1640   -53.3150 H      7545  TIP7395     0.2052
 41548 OH2         14.3920    24.5830   -27.4090 O.3    7546  TIP7396    -0.4105
 41549 H1          14.1320    25.3440   -26.8900 H      7546  TIP7396     0.2052
 41550 H2          13.9140    24.6790   -28.2330 H      7546  TIP7396     0.2052
 41551 OH2         23.6840     8.7570   -27.0660 O.3    7547  TIP7397    -0.4105
 41552 H1          24.5090     8.2710   -27.0610 H      7547  TIP7397     0.2052
 41553 H2          23.8220     9.4570   -27.7050 H      7547  TIP7397     0.2052
 41554 OH2        -16.4800   -13.2390   -44.7010 O.3    7548  TIP7398    -0.4105
 41555 H1         -16.0360   -13.5600   -43.9160 H      7548  TIP7398     0.2052
 41556 H2         -16.8110   -12.3760   -44.4540 H      7548  TIP7398     0.2052
 41557 OH2         -8.4190   -29.1350   -31.0620 O.3    7549  TIP7399    -0.4105
 41558 H1          -8.7630   -29.9340   -30.6630 H      7549  TIP7399     0.2052
 41559 H2          -9.0290   -28.4490   -30.7910 H      7549  TIP7399     0.2052
 41560 OH2          3.8590   -17.0720    32.8020 O.3    7550  TIP7400    -0.4105
 41561 H1           3.1440   -16.6500    32.3260 H      7550  TIP7400     0.2052
 41562 H2           4.5660   -17.1400    32.1610 H      7550  TIP7400     0.2052
 41563 OH2         16.2170   -17.8330   -43.5260 O.3    7551  TIP7401    -0.4105
 41564 H1          15.7850   -18.3260   -44.2240 H      7551  TIP7401     0.2052
 41565 H2          17.0370   -18.3020   -43.3730 H      7551  TIP7401     0.2052
 41566 OH2         29.7180    14.2070    30.1110 O.3    7552  TIP7402    -0.4105
 41567 H1          28.9610    14.4860    30.6260 H      7552  TIP7402     0.2052
 41568 H2          30.3710    13.9520    30.7630 H      7552  TIP7402     0.2052
 41569 OH2        -18.2700   -31.2030   -27.1590 O.3    7553  TIP7403    -0.4105
 41570 H1         -18.4170   -31.7260   -26.3710 H      7553  TIP7403     0.2052
 41571 H2         -18.1090   -31.8470   -27.8480 H      7553  TIP7403     0.2052
 41572 OH2         13.9610    -1.7620    48.8860 O.3    7554  TIP7404    -0.4105
 41573 H1          13.8170    -1.1970    49.6450 H      7554  TIP7404     0.2052
 41574 H2          13.0920    -2.0990    48.6690 H      7554  TIP7404     0.2052
 41575 OH2         26.2120    15.6420   -23.7710 O.3    7555  TIP7405    -0.4105
 41576 H1          26.2630    16.5890   -23.9010 H      7555  TIP7405     0.2052
 41577 H2          27.1000    15.3280   -23.9460 H      7555  TIP7405     0.2052
 41578 OH2         -4.9820    21.0520    38.7780 O.3    7556  TIP7406    -0.4105
 41579 H1          -4.9240    20.3000    39.3670 H      7556  TIP7406     0.2052
 41580 H2          -5.6360    21.6230    39.1800 H      7556  TIP7406     0.2052
 41581 OH2         -4.6170   -25.3200   -47.9150 O.3    7557  TIP7407    -0.4105
 41582 H1          -5.1230   -24.5220   -48.0660 H      7557  TIP7407     0.2052
 41583 H2          -5.2030   -26.0290   -48.1810 H      7557  TIP7407     0.2052
 41584 OH2         22.5310    12.7150   -27.1950 O.3    7558  TIP7408    -0.4105
 41585 H1          23.0840    13.3290   -26.7110 H      7558  TIP7408     0.2052
 41586 H2          23.1210    12.3110   -27.8320 H      7558  TIP7408     0.2052
 41587 OH2         -4.6080    11.9960   -21.2570 O.3    7559  TIP7409    -0.4105
 41588 H1          -5.2790    11.8380   -20.5940 H      7559  TIP7409     0.2052
 41589 H2          -3.7930    12.0690   -20.7610 H      7559  TIP7409     0.2052
 41590 OH2        -27.6600    -2.7850   -36.7920 O.3    7560  TIP7410    -0.4105
 41591 H1         -28.1080    -3.1010   -36.0070 H      7560  TIP7410     0.2052
 41592 H2         -28.1400    -1.9950   -37.0410 H      7560  TIP7410     0.2052
 41593 OH2          8.8520     4.1990   -39.6160 O.3    7561  TIP7411    -0.4105
 41594 H1           9.7510     4.0840   -39.3070 H      7561  TIP7411     0.2052
 41595 H2           8.3300     3.6250   -39.0560 H      7561  TIP7411     0.2052
 41596 OH2         22.1850   -11.0640    26.5770 O.3    7562  TIP7412    -0.4105
 41597 H1          23.1130   -10.9240    26.7650 H      7562  TIP7412     0.2052
 41598 H2          21.7690   -10.2270    26.7870 H      7562  TIP7412     0.2052
 41599 OH2        -14.6240    10.7580   -50.6800 O.3    7563  TIP7413    -0.4105
 41600 H1         -14.9640     9.9970   -51.1500 H      7563  TIP7413     0.2052
 41601 H2         -15.2860    11.4370   -50.8120 H      7563  TIP7413     0.2052
 41602 OH2        -19.9940    21.7170    42.6020 O.3    7564  TIP7414    -0.4105
 41603 H1         -20.1200    21.8350    43.5430 H      7564  TIP7414     0.2052
 41604 H2         -19.1530    22.1350    42.4170 H      7564  TIP7414     0.2052
 41605 OH2         11.1580    -7.4880   -51.1530 O.3    7565  TIP7415    -0.4105
 41606 H1          11.5350    -7.2390   -50.3100 H      7565  TIP7415     0.2052
 41607 H2          10.6060    -6.7450   -51.3970 H      7565  TIP7415     0.2052
 41608 OH2        -20.2240   -22.9790   -49.5930 O.3    7566  TIP7416    -0.4105
 41609 H1         -20.3310   -22.0630   -49.8510 H      7566  TIP7416     0.2052
 41610 H2         -20.6410   -23.0360   -48.7330 H      7566  TIP7416     0.2052
 41611 OH2         12.9110    25.6030    53.6410 O.3    7567  TIP7417    -0.4105
 41612 H1          13.7300    25.9000    54.0370 H      7567  TIP7417     0.2052
 41613 H2          12.2530    26.2220    53.9580 H      7567  TIP7417     0.2052
 41614 OH2         18.9460    -6.0110   -29.1490 O.3    7568  TIP7418    -0.4105
 41615 H1          18.9400    -5.0860   -28.9040 H      7568  TIP7418     0.2052
 41616 H2          18.0210    -6.2540   -29.1950 H      7568  TIP7418     0.2052
 41617 OH2        -22.0540    20.3730   -43.6820 O.3    7569  TIP7419    -0.4105
 41618 H1         -22.9640    20.1050   -43.8070 H      7569  TIP7419     0.2052
 41619 H2         -22.0330    21.2880   -43.9650 H      7569  TIP7419     0.2052
 41620 OH2        -15.7160    20.1230   -46.1360 O.3    7570  TIP7420    -0.4105
 41621 H1         -16.6410    20.3020   -46.3100 H      7570  TIP7420     0.2052
 41622 H2         -15.5560    19.2720   -46.5440 H      7570  TIP7420     0.2052
 41623 OH2         -8.9700    27.2820    49.2190 O.3    7571  TIP7421    -0.4105
 41624 H1          -8.7960    28.1960    49.4410 H      7571  TIP7421     0.2052
 41625 H2          -8.8510    26.8080    50.0420 H      7571  TIP7421     0.2052
 41626 OH2        -17.3330     2.1090   -19.4190 O.3    7572  TIP7422    -0.4105
 41627 H1         -16.4630     2.4630   -19.6070 H      7572  TIP7422     0.2052
 41628 H2         -17.2000     1.5290   -18.6690 H      7572  TIP7422     0.2052
 41629 OH2         31.9390   -17.2880    55.5040 O.3    7573  TIP7423    -0.4105
 41630 H1          31.0910   -16.8440    55.4800 H      7573  TIP7423     0.2052
 41631 H2          31.8640   -17.9110    56.2260 H      7573  TIP7423     0.2052
 41632 OH2        -26.7540    -0.0340   -27.7800 O.3    7574  TIP7424    -0.4105
 41633 H1         -25.8380     0.1650   -27.5840 H      7574  TIP7424     0.2052
 41634 H2         -26.8550    -0.9560   -27.5450 H      7574  TIP7424     0.2052
 41635 OH2        -29.6780    -1.5750   -40.9010 O.3    7575  TIP7425    -0.4105
 41636 H1         -28.8980    -1.3640   -41.4150 H      7575  TIP7425     0.2052
 41637 H2         -29.9720    -2.4170   -41.2460 H      7575  TIP7425     0.2052
 41638 OH2         -8.7070     7.2640   -55.0200 O.3    7576  TIP7426    -0.4105
 41639 H1          -8.4350     8.1590   -54.8200 H      7576  TIP7426     0.2052
 41640 H2          -7.9420     6.7280   -54.8120 H      7576  TIP7426     0.2052
 41641 OH2        -14.8850    15.8880   -52.3940 O.3    7577  TIP7427    -0.4105
 41642 H1         -15.8350    15.8960   -52.2790 H      7577  TIP7427     0.2052
 41643 H2         -14.7500    16.1900   -53.2930 H      7577  TIP7427     0.2052
 41644 OH2         23.5610     7.4610    19.3740 O.3    7578  TIP7428    -0.4105
 41645 H1          24.3520     7.5510    18.8420 H      7578  TIP7428     0.2052
 41646 H2          23.2210     6.5940    19.1540 H      7578  TIP7428     0.2052
 41647 OH2         -9.7000    26.6480   -52.0520 O.3    7579  TIP7429    -0.4105
 41648 H1          -9.2930    26.3370   -52.8600 H      7579  TIP7429     0.2052
 41649 H2         -10.6380    26.6480   -52.2400 H      7579  TIP7429     0.2052
 41650 OH2        -22.7070   -14.6460    49.0720 O.3    7580  TIP7430    -0.4105
 41651 H1         -21.8610   -14.5090    48.6460 H      7580  TIP7430     0.2052
 41652 H2         -23.2790   -13.9800    48.6900 H      7580  TIP7430     0.2052
 41653 OH2         15.1340     4.2380   -19.7510 O.3    7581  TIP7431    -0.4105
 41654 H1          14.8820     5.0580   -19.3240 H      7581  TIP7431     0.2052
 41655 H2          14.4660     4.1020   -20.4220 H      7581  TIP7431     0.2052
 41656 OH2         24.8650     7.5850    33.9160 O.3    7582  TIP7432    -0.4105
 41657 H1          24.1930     7.5500    33.2350 H      7582  TIP7432     0.2052
 41658 H2          24.4940     8.1540    34.5910 H      7582  TIP7432     0.2052
 41659 OH2         -4.0220    32.9260   -41.9940 O.3    7583  TIP7433    -0.4105
 41660 H1          -4.6090    32.4780   -42.6020 H      7583  TIP7433     0.2052
 41661 H2          -4.4730    32.8860   -41.1510 H      7583  TIP7433     0.2052
 41662 OH2          8.3070    21.9850   -55.2430 O.3    7584  TIP7434    -0.4105
 41663 H1           7.6660    21.2770   -55.3050 H      7584  TIP7434     0.2052
 41664 H2           8.3810    22.1600   -54.3050 H      7584  TIP7434     0.2052
 41665 OH2         20.3780    19.9730   -42.4970 O.3    7585  TIP7435    -0.4105
 41666 H1          19.8770    19.9530   -43.3120 H      7585  TIP7435     0.2052
 41667 H2          19.7750    19.6340   -41.8360 H      7585  TIP7435     0.2052
 41668 OH2        -31.3240   -26.8680   -51.1300 O.3    7586  TIP7436    -0.4105
 41669 H1         -31.4400   -26.3600   -51.9330 H      7586  TIP7436     0.2052
 41670 H2         -30.5400   -26.4980   -50.7230 H      7586  TIP7436     0.2052
 41671 OH2        -21.3940   -13.2040   -32.3470 O.3    7587  TIP7437    -0.4105
 41672 H1         -21.1540   -13.4430   -31.4520 H      7587  TIP7437     0.2052
 41673 H2         -21.5290   -14.0420   -32.7910 H      7587  TIP7437     0.2052
 41674 OH2        -21.2720   -15.8870   -52.1920 O.3    7588  TIP7438    -0.4105
 41675 H1         -21.7460   -16.5920   -52.6320 H      7588  TIP7438     0.2052
 41676 H2         -21.5350   -15.0930   -52.6580 H      7588  TIP7438     0.2052
 41677 OH2        -23.8660   -11.5600    27.6260 O.3    7589  TIP7439    -0.4105
 41678 H1         -23.8400   -12.5140    27.5540 H      7589  TIP7439     0.2052
 41679 H2         -22.9540   -11.2880    27.5230 H      7589  TIP7439     0.2052
 41680 OH2         24.7620   -24.5210    48.5860 O.3    7590  TIP7440    -0.4105
 41681 H1          25.3760   -23.7870    48.5700 H      7590  TIP7440     0.2052
 41682 H2          25.1510   -25.1720    48.0000 H      7590  TIP7440     0.2052
 41683 OH2         17.5520    13.1690   -51.2730 O.3    7591  TIP7441    -0.4105
 41684 H1          16.8870    12.7060   -50.7640 H      7591  TIP7441     0.2052
 41685 H2          18.1750    13.4890   -50.6200 H      7591  TIP7441     0.2052
 41686 OH2        -31.7080    -8.6440   -48.1990 O.3    7592  TIP7442    -0.4105
 41687 H1         -31.1440    -8.9410   -47.4850 H      7592  TIP7442     0.2052
 41688 H2         -31.2920    -8.9850   -48.9910 H      7592  TIP7442     0.2052
 41689 OH2        -10.5500    -3.5570   -44.5380 O.3    7593  TIP7443    -0.4105
 41690 H1         -10.4660    -4.3580   -45.0550 H      7593  TIP7443     0.2052
 41691 H2         -10.5780    -2.8540   -45.1870 H      7593  TIP7443     0.2052
 41692 OH2         -9.7260     4.3120    45.1600 O.3    7594  TIP7444    -0.4105
 41693 H1         -10.1700     4.5920    44.3600 H      7594  TIP7444     0.2052
 41694 H2          -9.5500     3.3810    45.0240 H      7594  TIP7444     0.2052
 41695 OH2         27.7350    29.5310   -54.8740 O.3    7595  TIP7445    -0.4105
 41696 H1          27.4410    28.8280   -55.4540 H      7595  TIP7445     0.2052
 41697 H2          27.0080    30.1540   -54.8650 H      7595  TIP7445     0.2052
 41698 OH2        -27.0960    32.2140   -50.5120 O.3    7596  TIP7446    -0.4105
 41699 H1         -26.8250    31.9750   -49.6260 H      7596  TIP7446     0.2052
 41700 H2         -26.4190    32.8180   -50.8160 H      7596  TIP7446     0.2052
 41701 OH2         30.5560    25.7540    47.9190 O.3    7597  TIP7447    -0.4105
 41702 H1          31.3150    25.2290    48.1740 H      7597  TIP7447     0.2052
 41703 H2          29.8600    25.4730    48.5130 H      7597  TIP7447     0.2052
 41704 OH2        -22.3260    19.6960    48.7870 O.3    7598  TIP7448    -0.4105
 41705 H1         -22.1460    19.4300    47.8860 H      7598  TIP7448     0.2052
 41706 H2         -21.6680    20.3650    48.9760 H      7598  TIP7448     0.2052
 41707 OH2         26.8410    10.7210   -27.7800 O.3    7599  TIP7449    -0.4105
 41708 H1          27.3900    10.0290   -27.4120 H      7599  TIP7449     0.2052
 41709 H2          27.3660    11.0910   -28.4910 H      7599  TIP7449     0.2052
 41710 OH2         -0.1730   -24.6250    27.2240 O.3    7600  TIP7450    -0.4105
 41711 H1           0.4260   -24.5110    26.4860 H      7600  TIP7450     0.2052
 41712 H2          -0.9390   -25.0570    26.8460 H      7600  TIP7450     0.2052
 41713 OH2          5.0930   -13.1140   -40.3550 O.3    7601  TIP7451    -0.4105
 41714 H1           4.6290   -13.3630   -39.5560 H      7601  TIP7451     0.2052
 41715 H2           4.3990   -12.8920   -40.9760 H      7601  TIP7451     0.2052
 41716 OH2         19.9280     5.6800   -36.9340 O.3    7602  TIP7452    -0.4105
 41717 H1          20.1920     5.3050   -37.7740 H      7602  TIP7452     0.2052
 41718 H2          18.9720     5.6270   -36.9380 H      7602  TIP7452     0.2052
 41719 OH2         21.5170    -8.7580   -52.7070 O.3    7603  TIP7453    -0.4105
 41720 H1          20.5890    -8.5250   -52.7390 H      7603  TIP7453     0.2052
 41721 H2          21.6340    -9.1650   -51.8480 H      7603  TIP7453     0.2052
 41722 OH2         30.0510   -20.7030   -34.6380 O.3    7604  TIP7454    -0.4105
 41723 H1          29.5900   -20.1010   -35.2210 H      7604  TIP7454     0.2052
 41724 H2          30.5710   -20.1350   -34.0690 H      7604  TIP7454     0.2052
 41725 OH2         20.8370     6.1470   -23.8680 O.3    7605  TIP7455    -0.4105
 41726 H1          20.6890     7.0600   -24.1140 H      7605  TIP7455     0.2052
 41727 H2          21.4210     5.8070   -24.5450 H      7605  TIP7455     0.2052
 41728 OH2         28.4510    29.6070    44.8750 O.3    7606  TIP7456    -0.4105
 41729 H1          27.9580    29.5010    45.6890 H      7606  TIP7456     0.2052
 41730 H2          27.7820    29.6520    44.1930 H      7606  TIP7456     0.2052
 41731 OH2          4.7070    30.5050    16.6980 O.3    7607  TIP7457    -0.4105
 41732 H1           5.5280    30.1780    16.3300 H      7607  TIP7457     0.2052
 41733 H2           4.5580    31.3380    16.2500 H      7607  TIP7457     0.2052
 41734 OH2        -15.1600   -10.3880   -22.3370 O.3    7608  TIP7458    -0.4105
 41735 H1         -15.0680    -9.6610   -22.9540 H      7608  TIP7458     0.2052
 41736 H2         -15.3870   -11.1400   -22.8840 H      7608  TIP7458     0.2052
 41737 OH2        -31.5420    29.1760    48.3480 O.3    7609  TIP7459    -0.4105
 41738 H1         -31.6250    29.0570    47.4020 H      7609  TIP7459     0.2052
 41739 H2         -32.1600    29.8770    48.5570 H      7609  TIP7459     0.2052
 41740 OH2         20.7380   -12.9800    36.2080 O.3    7610  TIP7460    -0.4105
 41741 H1          20.9070   -12.1340    36.6210 H      7610  TIP7460     0.2052
 41742 H2          21.5610   -13.2040    35.7720 H      7610  TIP7460     0.2052
 41743 OH2        -21.1260   -20.5080    15.9370 O.3    7611  TIP7461    -0.4105
 41744 H1         -21.8780   -20.6490    15.3620 H      7611  TIP7461     0.2052
 41745 H2         -20.6520   -21.3390    15.9210 H      7611  TIP7461     0.2052
 41746 OH2        -10.8660    -5.6430   -12.7820 O.3    7612  TIP7462    -0.4105
 41747 H1         -11.2230    -5.0510   -13.4440 H      7612  TIP7462     0.2052
 41748 H2         -11.6000    -5.8130   -12.1910 H      7612  TIP7462     0.2052
 41749 OH2          2.2190    -3.2040    23.4990 O.3    7613  TIP7463    -0.4105
 41750 H1           1.2840    -3.0990    23.3240 H      7613  TIP7463     0.2052
 41751 H2           2.5120    -3.8510    22.8570 H      7613  TIP7463     0.2052
 41752 OH2         -7.9820   -28.9410   -34.0100 O.3    7614  TIP7464    -0.4105
 41753 H1          -7.9790   -28.9880   -33.0540 H      7614  TIP7464     0.2052
 41754 H2          -7.4420   -29.6810   -34.2880 H      7614  TIP7464     0.2052
 41755 OH2         15.4900    21.0000    28.2850 O.3    7615  TIP7465    -0.4105
 41756 H1          15.1740    20.7920    27.4050 H      7615  TIP7465     0.2052
 41757 H2          15.8780    20.1840    28.6000 H      7615  TIP7465     0.2052
 41758 OH2         24.3350     9.6870   -51.2190 O.3    7616  TIP7466    -0.4105
 41759 H1          24.2170    10.6070   -50.9850 H      7616  TIP7466     0.2052
 41760 H2          23.5000     9.4310   -51.6120 H      7616  TIP7466     0.2052
 41761 OH2          4.2550   -32.7580    37.5840 O.3    7617  TIP7467    -0.4105
 41762 H1           4.0720   -32.0590    36.9560 H      7617  TIP7467     0.2052
 41763 H2           4.7600   -32.3320    38.2760 H      7617  TIP7467     0.2052
 41764 OH2         12.5080    28.1880    31.4440 O.3    7618  TIP7468    -0.4105
 41765 H1          13.1230    27.7630    32.0410 H      7618  TIP7468     0.2052
 41766 H2          11.8940    28.6460    32.0180 H      7618  TIP7468     0.2052
 41767 OH2         14.8400   -18.2780    51.6960 O.3    7619  TIP7469    -0.4105
 41768 H1          15.7830   -18.1320    51.6260 H      7619  TIP7469     0.2052
 41769 H2          14.4610   -17.3980    51.7050 H      7619  TIP7469     0.2052
 41770 OH2          8.5730    29.0490    33.2860 O.3    7620  TIP7470    -0.4105
 41771 H1           8.6890    29.5450    32.4750 H      7620  TIP7470     0.2052
 41772 H2           7.8020    28.5050    33.1270 H      7620  TIP7470     0.2052
 41773 OH2         -8.0870     1.5850   -42.3090 O.3    7621  TIP7471    -0.4105
 41774 H1          -8.8970     1.1150   -42.5080 H      7621  TIP7471     0.2052
 41775 H2          -8.0130     2.2410   -43.0020 H      7621  TIP7471     0.2052
 41776 OH2         -4.1220    29.5660   -48.7540 O.3    7622  TIP7472    -0.4105
 41777 H1          -4.3720    28.6420   -48.7710 H      7622  TIP7472     0.2052
 41778 H2          -4.4640    29.8920   -47.9220 H      7622  TIP7472     0.2052
 41779 OH2         15.0490     8.3470    48.4850 O.3    7623  TIP7473    -0.4105
 41780 H1          15.4120     8.5390    47.6200 H      7623  TIP7473     0.2052
 41781 H2          15.7170     7.8090    48.9110 H      7623  TIP7473     0.2052
 41782 OH2         10.3460    12.9500    29.5070 O.3    7624  TIP7474    -0.4105
 41783 H1           9.5530    13.0640    28.9830 H      7624  TIP7474     0.2052
 41784 H2          10.2140    13.5140    30.2690 H      7624  TIP7474     0.2052
 41785 OH2          7.6310    15.1100   -32.0610 O.3    7625  TIP7475    -0.4105
 41786 H1           7.3950    14.4620   -32.7250 H      7625  TIP7475     0.2052
 41787 H2           6.9940    14.9780   -31.3590 H      7625  TIP7475     0.2052
 41788 OH2         18.5770    -9.3950   -37.4030 O.3    7626  TIP7476    -0.4105
 41789 H1          18.7160    -9.8920   -36.5960 H      7626  TIP7476     0.2052
 41790 H2          19.3680    -8.8650   -37.4960 H      7626  TIP7476     0.2052
 41791 OH2        -29.3030    -4.4270   -48.6340 O.3    7627  TIP7477    -0.4105
 41792 H1         -29.7140    -3.8540   -47.9880 H      7627  TIP7477     0.2052
 41793 H2         -28.8870    -3.8290   -49.2560 H      7627  TIP7477     0.2052
 41794 OH2         19.3040   -26.6980    44.0530 O.3    7628  TIP7478    -0.4105
 41795 H1          19.5540   -27.0100    43.1830 H      7628  TIP7478     0.2052
 41796 H2          19.1070   -27.4950    44.5450 H      7628  TIP7478     0.2052
 41797 OH2        -12.3470    16.7980   -21.2780 O.3    7629  TIP7479    -0.4105
 41798 H1         -12.0030    17.5740   -21.7190 H      7629  TIP7479     0.2052
 41799 H2         -11.5800    16.2430   -21.1370 H      7629  TIP7479     0.2052
 41800 OH2         -2.5790    29.4900    31.0590 O.3    7630  TIP7480    -0.4105
 41801 H1          -2.1390    29.6330    30.2210 H      7630  TIP7480     0.2052
 41802 H2          -2.0710    30.0040    31.6870 H      7630  TIP7480     0.2052
 41803 OH2         25.4760   -29.1270    28.4120 O.3    7631  TIP7481    -0.4105
 41804 H1          24.5660   -28.8600    28.5390 H      7631  TIP7481     0.2052
 41805 H2          25.4830   -30.0620    28.6160 H      7631  TIP7481     0.2052
 41806 OH2        -31.8520    19.0710    54.8240 O.3    7632  TIP7482    -0.4105
 41807 H1         -32.0210    19.6370    54.0710 H      7632  TIP7482     0.2052
 41808 H2         -30.9040    19.1150    54.9500 H      7632  TIP7482     0.2052
 41809 OH2         11.9530   -26.8900    53.4020 O.3    7633  TIP7483    -0.4105
 41810 H1          12.6260   -27.5590    53.2810 H      7633  TIP7483     0.2052
 41811 H2          11.8840   -26.4620    52.5490 H      7633  TIP7483     0.2052
 41812 OH2         12.1510     9.3790   -44.0990 O.3    7634  TIP7484    -0.4105
 41813 H1          12.6140     8.6970   -44.5850 H      7634  TIP7484     0.2052
 41814 H2          11.6200     8.9020   -43.4610 H      7634  TIP7484     0.2052
 41815 OH2        -12.2780   -22.1170    46.3560 O.3    7635  TIP7485    -0.4105
 41816 H1         -13.0450   -21.9560    45.8060 H      7635  TIP7485     0.2052
 41817 H2         -12.6370   -22.4770    47.1670 H      7635  TIP7485     0.2052
 41818 OH2        -10.5330   -30.5870    48.0890 O.3    7636  TIP7486    -0.4105
 41819 H1          -9.6770   -30.6200    47.6620 H      7636  TIP7486     0.2052
 41820 H2         -10.9540   -31.4130    47.8470 H      7636  TIP7486     0.2052
 41821 OH2         14.5470     0.2580   -42.3960 O.3    7637  TIP7487    -0.4105
 41822 H1          14.5900     1.0950   -41.9350 H      7637  TIP7487     0.2052
 41823 H2          14.0640     0.4510   -43.2000 H      7637  TIP7487     0.2052
 41824 OH2          8.0530   -22.4080    55.5470 O.3    7638  TIP7488    -0.4105
 41825 H1           7.7650   -23.1840    56.0280 H      7638  TIP7488     0.2052
 41826 H2           8.9950   -22.5330    55.4320 H      7638  TIP7488     0.2052
 41827 OH2        -19.8110   -11.3490    30.1390 O.3    7639  TIP7489    -0.4105
 41828 H1         -20.2030   -12.2180    30.2230 H      7639  TIP7489     0.2052
 41829 H2         -19.8650   -11.1510    29.2040 H      7639  TIP7489     0.2052
 41830 OH2        -29.9450    -1.7950   -18.9570 O.3    7640  TIP7490    -0.4105
 41831 H1         -29.4800    -1.9360   -19.7820 H      7640  TIP7490     0.2052
 41832 H2         -29.6500    -0.9340   -18.6590 H      7640  TIP7490     0.2052
 41833 OH2         16.3190   -12.4580   -37.7460 O.3    7641  TIP7491    -0.4105
 41834 H1          15.6710   -11.9480   -38.2300 H      7641  TIP7491     0.2052
 41835 H2          15.9650   -13.3470   -37.7340 H      7641  TIP7491     0.2052
 41836 OH2          9.6300    14.7070    50.8690 O.3    7642  TIP7492    -0.4105
 41837 H1           9.9420    14.2900    51.6720 H      7642  TIP7492     0.2052
 41838 H2           9.2100    15.5150    51.1660 H      7642  TIP7492     0.2052
 41839 OH2        -22.4610   -19.7880   -34.9470 O.3    7643  TIP7493    -0.4105
 41840 H1         -22.0770   -19.3950   -35.7310 H      7643  TIP7493     0.2052
 41841 H2         -21.8990   -20.5380   -34.7550 H      7643  TIP7493     0.2052
 41842 OH2          3.2750   -26.2940    45.6780 O.3    7644  TIP7494    -0.4105
 41843 H1           3.4840   -26.2470    44.7450 H      7644  TIP7494     0.2052
 41844 H2           4.1090   -26.4980    46.1000 H      7644  TIP7494     0.2052
 41845 OH2          5.6650   -11.1110    22.8820 O.3    7645  TIP7495    -0.4105
 41846 H1           5.5930   -10.2330    22.5070 H      7645  TIP7495     0.2052
 41847 H2           5.1920   -11.0570    23.7120 H      7645  TIP7495     0.2052
 41848 OH2         19.2240    22.0710    28.9230 O.3    7646  TIP7496    -0.4105
 41849 H1          19.8230    22.7860    28.7080 H      7646  TIP7496     0.2052
 41850 H2          19.3840    21.4130    28.2460 H      7646  TIP7496     0.2052
 41851 OH2        -27.3160     8.1720   -46.1860 O.3    7647  TIP7497    -0.4105
 41852 H1         -27.0770     7.3110   -46.5290 H      7647  TIP7497     0.2052
 41853 H2         -28.1840     8.0450   -45.8030 H      7647  TIP7497     0.2052
 41854 OH2        -28.7890   -29.0360   -48.0290 O.3    7648  TIP7498    -0.4105
 41855 H1         -29.0090   -29.7110   -48.6720 H      7648  TIP7498     0.2052
 41856 H2         -28.7830   -29.4960   -47.1900 H      7648  TIP7498     0.2052
 41857 OH2         22.7300    12.6710    28.9720 O.3    7649  TIP7499    -0.4105
 41858 H1          23.1870    11.8500    29.1520 H      7649  TIP7499     0.2052
 41859 H2          23.3070    13.3490    29.3230 H      7649  TIP7499     0.2052
 41860 OH2          4.8600    11.9610   -23.8820 O.3    7650  TIP7500    -0.4105
 41861 H1           5.2050    12.4810   -24.6080 H      7650  TIP7500     0.2052
 41862 H2           4.7840    12.5810   -23.1570 H      7650  TIP7500     0.2052
 41863 OH2         -5.0250    30.9090   -37.7450 O.3    7651  TIP7501    -0.4105
 41864 H1          -5.3900    30.6020   -38.5750 H      7651  TIP7501     0.2052
 41865 H2          -4.5020    30.1740   -37.4260 H      7651  TIP7501     0.2052
 41866 OH2         31.2560   -12.2060    30.0950 O.3    7652  TIP7502    -0.4105
 41867 H1          30.7570   -12.7550    29.4890 H      7652  TIP7502     0.2052
 41868 H2          31.6690   -12.8270    30.6950 H      7652  TIP7502     0.2052
 41869 OH2         29.8020     3.9610    45.4490 O.3    7653  TIP7503    -0.4105
 41870 H1          29.6600     4.8450    45.7890 H      7653  TIP7503     0.2052
 41871 H2          30.7480     3.9050    45.3140 H      7653  TIP7503     0.2052
 41872 OH2         13.2710    24.7280    40.2030 O.3    7654  TIP7504    -0.4105
 41873 H1          13.9440    24.9400    40.8510 H      7654  TIP7504     0.2052
 41874 H2          13.4310    23.8110    39.9820 H      7654  TIP7504     0.2052
 41875 OH2        -11.7130     0.0920   -37.6460 O.3    7655  TIP7505    -0.4105
 41876 H1         -11.0580    -0.0540   -36.9630 H      7655  TIP7505     0.2052
 41877 H2         -11.2720    -0.1540   -38.4590 H      7655  TIP7505     0.2052
 41878 OH2         15.0380   -19.5310   -45.3020 O.3    7656  TIP7506    -0.4105
 41879 H1          15.7540   -19.5740   -45.9360 H      7656  TIP7506     0.2052
 41880 H2          14.2450   -19.5160   -45.8380 H      7656  TIP7506     0.2052
 41881 OH2         30.3030   -29.1980   -41.1480 O.3    7657  TIP7507    -0.4105
 41882 H1          29.9290   -29.8470   -41.7440 H      7657  TIP7507     0.2052
 41883 H2          31.0910   -28.8890   -41.5940 H      7657  TIP7507     0.2052
 41884 OH2        -12.3200   -14.5060   -39.7760 O.3    7658  TIP7508    -0.4105
 41885 H1         -11.7930   -14.5120   -40.5740 H      7658  TIP7508     0.2052
 41886 H2         -11.7460   -14.1260   -39.1110 H      7658  TIP7508     0.2052
 41887 OH2         -1.3420   -16.4750   -19.8320 O.3    7659  TIP7509    -0.4105
 41888 H1          -1.6550   -15.6550   -19.4490 H      7659  TIP7509     0.2052
 41889 H2          -1.3590   -17.1000   -19.1080 H      7659  TIP7509     0.2052
 41890 OH2         -8.4730    -7.2460   -25.5720 O.3    7660  TIP7510    -0.4105
 41891 H1          -8.9320    -7.9160   -25.0650 H      7660  TIP7510     0.2052
 41892 H2          -8.8850    -7.2730   -26.4350 H      7660  TIP7510     0.2052
 41893 OH2          2.3990    27.2280   -29.1590 O.3    7661  TIP7511    -0.4105
 41894 H1           1.4910    27.1840   -28.8600 H      7661  TIP7511     0.2052
 41895 H2           2.8970    26.7690   -28.4820 H      7661  TIP7511     0.2052
 41896 OH2        -11.4380     9.8850    48.9840 O.3    7662  TIP7512    -0.4105
 41897 H1         -11.9530    10.2800    49.6880 H      7662  TIP7512     0.2052
 41898 H2         -10.5330    10.1160    49.1890 H      7662  TIP7512     0.2052
 41899 OH2          4.7680    31.8150   -28.4180 O.3    7663  TIP7513    -0.4105
 41900 H1           5.6540    31.8460   -28.7800 H      7663  TIP7513     0.2052
 41901 H2           4.3010    31.1980   -28.9800 H      7663  TIP7513     0.2052
 41902 OH2          5.5210   -23.1340    32.9540 O.3    7664  TIP7514    -0.4105
 41903 H1           5.6850   -24.0770    32.9790 H      7664  TIP7514     0.2052
 41904 H2           6.0170   -22.8240    32.1970 H      7664  TIP7514     0.2052
 41905 OH2         19.9910     0.8660    19.5380 O.3    7665  TIP7515    -0.4105
 41906 H1          20.8840     0.6320    19.2840 H      7665  TIP7515     0.2052
 41907 H2          19.5010     0.0470    19.4700 H      7665  TIP7515     0.2052
 41908 OH2        -27.8580   -11.1150    38.3530 O.3    7666  TIP7516    -0.4105
 41909 H1         -28.6550   -10.7460    37.9720 H      7666  TIP7516     0.2052
 41910 H2         -27.9850   -11.0370    39.2980 H      7666  TIP7516     0.2052
 41911 OH2         10.7050    19.3620    20.4650 O.3    7667  TIP7517    -0.4105
 41912 H1          10.5120    18.9300    19.6330 H      7667  TIP7517     0.2052
 41913 H2           9.9730    19.1240    21.0340 H      7667  TIP7517     0.2052
 41914 OH2          8.4630   -32.6530   -27.8350 O.3    7668  TIP7518    -0.4105
 41915 H1           9.1130   -32.7540   -27.1400 H      7668  TIP7518     0.2052
 41916 H2           8.5310   -31.7340   -28.0950 H      7668  TIP7518     0.2052
 41917 OH2          7.6380     5.3150   -30.4860 O.3    7669  TIP7519    -0.4105
 41918 H1           7.7900     4.4100   -30.7590 H      7669  TIP7519     0.2052
 41919 H2           8.5130     5.6680   -30.3270 H      7669  TIP7519     0.2052
 41920 OH2         13.4970    15.5820    31.4530 O.3    7670  TIP7520    -0.4105
 41921 H1          12.6180    15.4260    31.7980 H      7670  TIP7520     0.2052
 41922 H2          13.4330    15.3620    30.5240 H      7670  TIP7520     0.2052
 41923 OH2         -7.0890   -32.2020    24.4690 O.3    7671  TIP7521    -0.4105
 41924 H1          -6.3560   -31.5930    24.5660 H      7671  TIP7521     0.2052
 41925 H2          -7.6650   -31.7830    23.8300 H      7671  TIP7521     0.2052
 41926 OH2         28.8920    -1.5860    29.7610 O.3    7672  TIP7522    -0.4105
 41927 H1          29.3960    -2.3640    29.5240 H      7672  TIP7522     0.2052
 41928 H2          28.1380    -1.5990    29.1720 H      7672  TIP7522     0.2052
 41929 OH2         23.2240     6.1330   -31.0510 O.3    7673  TIP7523    -0.4105
 41930 H1          22.8260     6.9700   -31.2900 H      7673  TIP7523     0.2052
 41931 H2          24.1640     6.3120   -31.0290 H      7673  TIP7523     0.2052
 41932 OH2        -12.8020    32.4970    50.8640 O.3    7674  TIP7524    -0.4105
 41933 H1         -12.5140    33.3130    51.2730 H      7674  TIP7524     0.2052
 41934 H2         -12.9700    31.9060    51.5980 H      7674  TIP7524     0.2052
 41935 OH2         15.9640   -10.9160   -40.6300 O.3    7675  TIP7525    -0.4105
 41936 H1          15.3020   -11.0890   -41.2990 H      7675  TIP7525     0.2052
 41937 H2          16.6170   -11.6050   -40.7550 H      7675  TIP7525     0.2052
 41938 OH2         27.4680   -15.4040    46.0550 O.3    7676  TIP7526    -0.4105
 41939 H1          27.2390   -15.1240    46.9410 H      7676  TIP7526     0.2052
 41940 H2          28.4110   -15.2510    45.9910 H      7676  TIP7526     0.2052
 41941 OH2         -1.5910    20.5530   -29.8910 O.3    7677  TIP7527    -0.4105
 41942 H1          -2.4790    20.1980   -29.8580 H      7677  TIP7527     0.2052
 41943 H2          -1.5120    21.0760   -29.0930 H      7677  TIP7527     0.2052
 41944 OH2        -27.0990    22.8660    33.2050 O.3    7678  TIP7528    -0.4105
 41945 H1         -26.8930    22.0650    32.7220 H      7678  TIP7528     0.2052
 41946 H2         -27.6920    22.5800    33.9000 H      7678  TIP7528     0.2052
 41947 OH2        -29.0410    18.4360    29.3170 O.3    7679  TIP7529    -0.4105
 41948 H1         -29.5730    18.1480    30.0590 H      7679  TIP7529     0.2052
 41949 H2         -29.2770    19.3560    29.1950 H      7679  TIP7529     0.2052
 41950 OH2         13.0740   -11.2820    40.5340 O.3    7680  TIP7530    -0.4105
 41951 H1          13.0290   -10.5780    41.1810 H      7680  TIP7530     0.2052
 41952 H2          13.9710   -11.2470    40.2020 H      7680  TIP7530     0.2052
 41953 OH2         21.8430    14.7410    31.8540 O.3    7681  TIP7531    -0.4105
 41954 H1          21.3610    14.8390    32.6760 H      7681  TIP7531     0.2052
 41955 H2          22.6600    15.2180    31.9970 H      7681  TIP7531     0.2052
 41956 OH2         -7.9340   -18.7510    53.5200 O.3    7682  TIP7532    -0.4105
 41957 H1          -8.4830   -19.4890    53.2560 H      7682  TIP7532     0.2052
 41958 H2          -7.8560   -18.8370    54.4700 H      7682  TIP7532     0.2052
 41959 OH2        -10.6270   -23.9960   -27.2570 O.3    7683  TIP7533    -0.4105
 41960 H1         -10.3300   -23.0900   -27.1750 H      7683  TIP7533     0.2052
 41961 H2         -10.0050   -24.3990   -27.8620 H      7683  TIP7533     0.2052
 41962 OH2        -23.4180    25.2110    18.4080 O.3    7684  TIP7534    -0.4105
 41963 H1         -23.1190    24.5200    17.8160 H      7684  TIP7534     0.2052
 41964 H2         -23.0760    26.0190    18.0260 H      7684  TIP7534     0.2052
 41965 OH2        -11.2790    -8.8160   -51.4590 O.3    7685  TIP7535    -0.4105
 41966 H1         -11.6090    -8.0210   -51.8770 H      7685  TIP7535     0.2052
 41967 H2         -10.3720    -8.8860   -51.7580 H      7685  TIP7535     0.2052
 41968 OH2        -27.8090    22.4350   -33.5980 O.3    7686  TIP7536    -0.4105
 41969 H1         -28.0550    21.7580   -34.2280 H      7686  TIP7536     0.2052
 41970 H2         -28.6190    22.9180   -33.4350 H      7686  TIP7536     0.2052
 41971 OH2         -3.0400    25.3390    43.5730 O.3    7687  TIP7537    -0.4105
 41972 H1          -3.8070    25.1240    44.1040 H      7687  TIP7537     0.2052
 41973 H2          -3.2430    26.1940    43.1930 H      7687  TIP7537     0.2052
 41974 OH2        -27.8780   -18.7280    25.2320 O.3    7688  TIP7538    -0.4105
 41975 H1         -28.8000   -18.9500    25.1030 H      7688  TIP7538     0.2052
 41976 H2         -27.8030   -17.8250    24.9240 H      7688  TIP7538     0.2052
 41977 OH2         27.1060   -19.2340    41.9590 O.3    7689  TIP7539    -0.4105
 41978 H1          26.9930   -18.7600    41.1350 H      7689  TIP7539     0.2052
 41979 H2          26.8130   -18.6190    42.6310 H      7689  TIP7539     0.2052
 41980 OH2          1.0540    16.5330   -45.7490 O.3    7690  TIP7540    -0.4105
 41981 H1           0.5600    17.1680   -45.2310 H      7690  TIP7540     0.2052
 41982 H2           0.7250    16.6430   -46.6410 H      7690  TIP7540     0.2052
 41983 OH2         14.0280    -6.1430    36.1230 O.3    7691  TIP7541    -0.4105
 41984 H1          13.9080    -7.0810    36.2740 H      7691  TIP7541     0.2052
 41985 H2          13.1410    -5.7850    36.1220 H      7691  TIP7541     0.2052
 41986 OH2          9.3980    -2.5550    -5.4830 O.3    7692  TIP7542    -0.4105
 41987 H1          10.2950    -2.4560    -5.1610 H      7692  TIP7542     0.2052
 41988 H2           8.8620    -2.0820    -4.8460 H      7692  TIP7542     0.2052
 41989 OH2         -4.5770   -29.4850    18.9170 O.3    7693  TIP7543    -0.4105
 41990 H1          -3.7610   -29.0440    18.6790 H      7693  TIP7543     0.2052
 41991 H2          -4.8550   -29.0560    19.7260 H      7693  TIP7543     0.2052
 41992 OH2        -20.5670    14.8560   -18.2180 O.3    7694  TIP7544    -0.4105
 41993 H1         -19.7650    15.3680   -18.1180 H      7694  TIP7544     0.2052
 41994 H2         -20.9920    14.9060   -17.3610 H      7694  TIP7544     0.2052
 41995 OH2         17.4270   -26.9340   -42.5640 O.3    7695  TIP7545    -0.4105
 41996 H1          17.6570   -27.7750   -42.1690 H      7695  TIP7545     0.2052
 41997 H2          18.1590   -26.7350   -43.1480 H      7695  TIP7545     0.2052
 41998 OH2         19.6330   -17.3710    49.0510 O.3    7696  TIP7546    -0.4105
 41999 H1          20.3880   -17.9590    49.0690 H      7696  TIP7546     0.2052
 42000 H2          19.7700   -16.8280    48.2750 H      7696  TIP7546     0.2052
 42001 OH2         15.0730    18.3640    53.6300 O.3    7697  TIP7547    -0.4105
 42002 H1          14.5650    17.8960    52.9670 H      7697  TIP7547     0.2052
 42003 H2          15.6510    17.6980    54.0030 H      7697  TIP7547     0.2052
 42004 OH2         22.7400   -15.6180    16.8800 O.3    7698  TIP7548    -0.4105
 42005 H1          22.4150   -15.8070    16.0000 H      7698  TIP7548     0.2052
 42006 H2          23.5260   -16.1570    16.9670 H      7698  TIP7548     0.2052
 42007 OH2         21.3870    -6.5310    36.2790 O.3    7699  TIP7549    -0.4105
 42008 H1          21.6540    -5.6580    35.9920 H      7699  TIP7549     0.2052
 42009 H2          20.8400    -6.3740    37.0490 H      7699  TIP7549     0.2052
 42010 OH2         17.1610    31.2110   -27.2670 O.3    7700  TIP7550    -0.4105
 42011 H1          17.3180    30.8400   -28.1360 H      7700  TIP7550     0.2052
 42012 H2          17.7550    30.7310   -26.6900 H      7700  TIP7550     0.2052
 42013 OH2         -6.5560    30.3890   -20.0510 O.3    7701  TIP7551    -0.4105
 42014 H1          -6.2130    31.0040   -20.6990 H      7701  TIP7551     0.2052
 42015 H2          -6.1780    29.5440   -20.2970 H      7701  TIP7551     0.2052
 42016 OH2         -7.8040     4.1650   -31.1240 O.3    7702  TIP7552    -0.4105
 42017 H1          -7.9070     4.7780   -31.8520 H      7702  TIP7552     0.2052
 42018 H2          -8.6580     3.7400   -31.0450 H      7702  TIP7552     0.2052
 42019 OH2         -4.8100     1.2970    40.1580 O.3    7703  TIP7553    -0.4105
 42020 H1          -4.2680     1.0370    40.9030 H      7703  TIP7553     0.2052
 42021 H2          -5.2140     0.4820    39.8600 H      7703  TIP7553     0.2052
 42022 OH2        -32.6670   -20.0990   -46.8930 O.3    7704  TIP7554    -0.4105
 42023 H1         -33.1840   -19.5470   -46.3070 H      7704  TIP7554     0.2052
 42024 H2         -32.5170   -19.5550   -47.6660 H      7704  TIP7554     0.2052
 42025 OH2         17.7660     2.1610    47.7570 O.3    7705  TIP7555    -0.4105
 42026 H1          18.5730     1.9690    47.2800 H      7705  TIP7555     0.2052
 42027 H2          17.7730     3.1120    47.8670 H      7705  TIP7555     0.2052
 42028 OH2        -10.8820   -17.5260    37.1990 O.3    7706  TIP7556    -0.4105
 42029 H1         -11.3610   -17.8050    36.4180 H      7706  TIP7556     0.2052
 42030 H2         -10.5950   -18.3430    37.6080 H      7706  TIP7556     0.2052
 42031 OH2        -13.6470    -9.2330   -42.0940 O.3    7707  TIP7557    -0.4105
 42032 H1         -13.7390    -9.7510   -42.8940 H      7707  TIP7557     0.2052
 42033 H2         -13.7650    -9.8650   -41.3840 H      7707  TIP7557     0.2052
 42034 OH2          3.5120   -23.1260    37.6540 O.3    7708  TIP7558    -0.4105
 42035 H1           4.2610   -23.1520    38.2500 H      7708  TIP7558     0.2052
 42036 H2           3.8880   -22.8870    36.8060 H      7708  TIP7558     0.2052
 42037 OH2        -15.7040   -25.3130   -22.8640 O.3    7709  TIP7559    -0.4105
 42038 H1         -15.9790   -25.2100   -23.7750 H      7709  TIP7559     0.2052
 42039 H2         -14.7570   -25.1790   -22.8820 H      7709  TIP7559     0.2052
 42040 OH2         12.2560    -2.2800   -23.6990 O.3    7710  TIP7560    -0.4105
 42041 H1          12.9500    -2.0590   -24.3200 H      7710  TIP7560     0.2052
 42042 H2          12.4370    -3.1870   -23.4510 H      7710  TIP7560     0.2052
 42043 OH2         -1.5790    13.0460   -38.7240 O.3    7711  TIP7561    -0.4105
 42044 H1          -1.2840    13.3090   -37.8520 H      7711  TIP7561     0.2052
 42045 H2          -2.5110    12.8590   -38.6160 H      7711  TIP7561     0.2052
 42046 OH2         29.8710    24.0060   -39.5530 O.3    7712  TIP7562    -0.4105
 42047 H1          30.4030    24.4340   -38.8820 H      7712  TIP7562     0.2052
 42048 H2          29.2170    24.6620   -39.7950 H      7712  TIP7562     0.2052
 42049 OH2         -7.0540   -23.0210   -38.1550 O.3    7713  TIP7563    -0.4105
 42050 H1          -6.1810   -23.3140   -38.4180 H      7713  TIP7563     0.2052
 42051 H2          -7.1350   -22.1440   -38.5280 H      7713  TIP7563     0.2052
 42052 OH2        -11.5320     9.8500   -21.1590 O.3    7714  TIP7564    -0.4105
 42053 H1         -11.0410    10.4780   -20.6290 H      7714  TIP7564     0.2052
 42054 H2         -11.9420     9.2670   -20.5210 H      7714  TIP7564     0.2052
 42055 OH2          4.4210   -31.5770    27.9060 O.3    7715  TIP7565    -0.4105
 42056 H1           5.1490   -31.6250    27.2860 H      7715  TIP7565     0.2052
 42057 H2           3.6560   -31.8520    27.4000 H      7715  TIP7565     0.2052
 42058 OH2         27.5440    -2.2040   -36.1040 O.3    7716  TIP7566    -0.4105
 42059 H1          26.9810    -1.8450   -35.4180 H      7716  TIP7566     0.2052
 42060 H2          27.2930    -3.1250   -36.1630 H      7716  TIP7566     0.2052
 42061 OH2        -28.0640   -24.2140    34.9220 O.3    7717  TIP7567    -0.4105
 42062 H1         -28.5550   -23.3910    34.9320 H      7717  TIP7567     0.2052
 42063 H2         -27.9950   -24.4400    33.9950 H      7717  TIP7567     0.2052
 42064 OH2         -6.8770    31.4960    32.4970 O.3    7718  TIP7568    -0.4105
 42065 H1          -7.4580    32.2040    32.2170 H      7718  TIP7568     0.2052
 42066 H2          -6.3940    31.2560    31.7060 H      7718  TIP7568     0.2052
 42067 OH2          4.1260     7.2450   -35.4740 O.3    7719  TIP7569    -0.4105
 42068 H1           3.6150     7.1610   -34.6690 H      7719  TIP7569     0.2052
 42069 H2           3.4930     7.0940   -36.1770 H      7719  TIP7569     0.2052
 42070 OH2        -11.9020     8.9900   -54.0110 O.3    7720  TIP7570    -0.4105
 42071 H1         -11.7090     8.6480   -53.1390 H      7720  TIP7570     0.2052
 42072 H2         -12.0470     9.9260   -53.8750 H      7720  TIP7570     0.2052
 42073 OH2         23.3670   -14.5210    35.6170 O.3    7721  TIP7571    -0.4105
 42074 H1          24.0370   -14.8230    36.2310 H      7721  TIP7571     0.2052
 42075 H2          23.5020   -15.0550    34.8340 H      7721  TIP7571     0.2052
 42076 OH2         12.3530    18.0800   -37.2030 O.3    7722  TIP7572    -0.4105
 42077 H1          12.1370    18.9490   -37.5420 H      7722  TIP7572     0.2052
 42078 H2          11.8100    17.4810   -37.7160 H      7722  TIP7572     0.2052
 42079 OH2        -29.3810    15.2390    54.6670 O.3    7723  TIP7573    -0.4105
 42080 H1         -28.7690    15.9560    54.8360 H      7723  TIP7573     0.2052
 42081 H2         -30.2060    15.6740    54.4490 H      7723  TIP7573     0.2052
 42082 OH2        -30.6820    23.0320   -27.2820 O.3    7724  TIP7574    -0.4105
 42083 H1         -29.7800    22.9960   -26.9630 H      7724  TIP7574     0.2052
 42084 H2         -30.8480    22.1560   -27.6310 H      7724  TIP7574     0.2052
 42085 OH2         28.4400     2.5980    31.5870 O.3    7725  TIP7575    -0.4105
 42086 H1          27.8880     2.9410    32.2900 H      7725  TIP7575     0.2052
 42087 H2          27.9250     2.7310    30.7910 H      7725  TIP7575     0.2052
 42088 OH2         23.7480    -4.4670   -33.4310 O.3    7726  TIP7576    -0.4105
 42089 H1          23.9990    -4.1360   -34.2930 H      7726  TIP7576     0.2052
 42090 H2          24.1080    -3.8280   -32.8150 H      7726  TIP7576     0.2052
 42091 OH2          7.0320     3.6720    35.8890 O.3    7727  TIP7577    -0.4105
 42092 H1           6.7600     2.8350    36.2650 H      7727  TIP7577     0.2052
 42093 H2           6.2320     4.1980    35.8710 H      7727  TIP7577     0.2052
 42094 OH2          2.1300    14.8760   -19.7020 O.3    7728  TIP7578    -0.4105
 42095 H1           1.2890    14.5390   -19.3930 H      7728  TIP7578     0.2052
 42096 H2           2.7620    14.1980   -19.4650 H      7728  TIP7578     0.2052
 42097 OH2         10.9110    -9.3430    28.2720 O.3    7729  TIP7579    -0.4105
 42098 H1          10.0030    -9.6090    28.4170 H      7729  TIP7579     0.2052
 42099 H2          11.2930   -10.0610    27.7670 H      7729  TIP7579     0.2052
 42100 OH2          7.0040   -16.2990    28.6440 O.3    7730  TIP7580    -0.4105
 42101 H1           7.4280   -15.4640    28.8410 H      7730  TIP7580     0.2052
 42102 H2           7.5850   -16.7200    28.0110 H      7730  TIP7580     0.2052
 42103 OH2        -22.7540    -6.3310    32.6750 O.3    7731  TIP7581    -0.4105
 42104 H1         -22.5400    -6.4160    31.7460 H      7731  TIP7581     0.2052
 42105 H2         -23.5230    -6.8870    32.7960 H      7731  TIP7581     0.2052
 42106 OH2         28.0700   -32.3690    27.0230 O.3    7732  TIP7582    -0.4105
 42107 H1          28.5680   -33.1670    27.2010 H      7732  TIP7582     0.2052
 42108 H2          28.0760   -32.2900    26.0690 H      7732  TIP7582     0.2052
 42109 OH2         30.4930    -8.2690   -42.4580 O.3    7733  TIP7583    -0.4105
 42110 H1          29.9270    -8.0340   -43.1940 H      7733  TIP7583     0.2052
 42111 H2          31.3160    -7.8130   -42.6340 H      7733  TIP7583     0.2052
 42112 OH2         15.4940    -4.4450   -27.9970 O.3    7734  TIP7584    -0.4105
 42113 H1          15.8550    -3.6120   -28.3020 H      7734  TIP7584     0.2052
 42114 H2          15.9940    -4.6480   -27.2070 H      7734  TIP7584     0.2052
 42115 OH2          0.1450   -26.9010    43.5910 O.3    7735  TIP7585    -0.4105
 42116 H1           0.9510   -27.4170    43.6050 H      7735  TIP7585     0.2052
 42117 H2          -0.2250   -27.0100    44.4670 H      7735  TIP7585     0.2052
 42118 OH2        -27.8390   -26.6990   -31.6930 O.3    7736  TIP7586    -0.4105
 42119 H1         -26.9120   -26.7510   -31.4590 H      7736  TIP7586     0.2052
 42120 H2         -28.2310   -26.1670   -31.0000 H      7736  TIP7586     0.2052
 42121 OH2         -2.0120    -8.1010   -48.6280 O.3    7737  TIP7587    -0.4105
 42122 H1          -1.3320    -7.4390   -48.4970 H      7737  TIP7587     0.2052
 42123 H2          -2.8310    -7.6450   -48.4330 H      7737  TIP7587     0.2052
 42124 OH2         32.8360     0.6610   -38.1250 O.3    7738  TIP7588    -0.4105
 42125 H1          33.5160     1.1740   -38.5630 H      7738  TIP7588     0.2052
 42126 H2          32.8900     0.9240   -37.2070 H      7738  TIP7588     0.2052
 42127 OH2         20.0680   -21.4870    49.3160 O.3    7739  TIP7589    -0.4105
 42128 H1          19.7610   -20.9810    50.0690 H      7739  TIP7589     0.2052
 42129 H2          20.7010   -20.9140    48.8840 H      7739  TIP7589     0.2052
 42130 OH2          5.4010     3.5210    27.2820 O.3    7740  TIP7590    -0.4105
 42131 H1           4.4730     3.6700    27.4660 H      7740  TIP7590     0.2052
 42132 H2           5.4050     2.9230    26.5350 H      7740  TIP7590     0.2052
 42133 OH2         -9.0710   -11.6690   -24.9640 O.3    7741  TIP7591    -0.4105
 42134 H1          -9.4010   -11.4470   -25.8340 H      7741  TIP7591     0.2052
 42135 H2          -9.8520   -11.9120   -24.4660 H      7741  TIP7591     0.2052
 42136 OH2          1.9080   -14.7700    33.5050 O.3    7742  TIP7592    -0.4105
 42137 H1           2.0070   -14.2640    34.3110 H      7742  TIP7592     0.2052
 42138 H2           1.8090   -15.6750    33.8000 H      7742  TIP7592     0.2052
 42139 OH2         31.0380   -18.1140   -30.5320 O.3    7743  TIP7593    -0.4105
 42140 H1          31.2780   -18.7630   -29.8710 H      7743  TIP7593     0.2052
 42141 H2          30.5870   -18.6170   -31.2100 H      7743  TIP7593     0.2052
 42142 OH2        -26.1460   -29.5350   -36.4980 O.3    7744  TIP7594    -0.4105
 42143 H1         -26.2460   -29.4920   -35.5470 H      7744  TIP7594     0.2052
 42144 H2         -26.3850   -28.6610   -36.8050 H      7744  TIP7594     0.2052
 42145 OH2        -16.5160   -15.5440   -39.8330 O.3    7745  TIP7595    -0.4105
 42146 H1         -16.2390   -15.2050   -40.6840 H      7745  TIP7595     0.2052
 42147 H2         -15.9150   -15.1410   -39.2060 H      7745  TIP7595     0.2052
 42148 OH2         -2.0390     1.3920    47.5520 O.3    7746  TIP7596    -0.4105
 42149 H1          -1.2860     1.1980    48.1090 H      7746  TIP7596     0.2052
 42150 H2          -1.7850     1.0760    46.6850 H      7746  TIP7596     0.2052
 42151 OH2         24.5300    -0.7440    47.3720 O.3    7747  TIP7597    -0.4105
 42152 H1          24.4290    -1.6530    47.0900 H      7747  TIP7597     0.2052
 42153 H2          24.9390    -0.8050    48.2350 H      7747  TIP7597     0.2052
 42154 OH2         20.7170     2.5270    29.7900 O.3    7748  TIP7598    -0.4105
 42155 H1          20.2970     1.7700    30.1970 H      7748  TIP7598     0.2052
 42156 H2          20.6020     2.3890    28.8500 H      7748  TIP7598     0.2052
 42157 OH2        -20.8320    18.0950    25.9770 O.3    7749  TIP7599    -0.4105
 42158 H1         -20.5090    17.4560    26.6110 H      7749  TIP7599     0.2052
 42159 H2         -21.0280    18.8730    26.4990 H      7749  TIP7599     0.2052
 42160 OH2         13.8070   -29.5880   -37.7820 O.3    7750  TIP7600    -0.4105
 42161 H1          14.2640   -29.4850   -36.9470 H      7750  TIP7600     0.2052
 42162 H2          14.5000   -29.7810   -38.4130 H      7750  TIP7600     0.2052
 42163 OH2         18.3600   -22.7100   -35.6770 O.3    7751  TIP7601    -0.4105
 42164 H1          18.6610   -22.0610   -36.3140 H      7751  TIP7601     0.2052
 42165 H2          19.0410   -22.7200   -35.0050 H      7751  TIP7601     0.2052
 42166 OH2        -32.9550   -11.4830   -31.2910 O.3    7752  TIP7602    -0.4105
 42167 H1         -33.8310   -11.7130   -30.9810 H      7752  TIP7602     0.2052
 42168 H2         -32.3680   -11.7860   -30.5990 H      7752  TIP7602     0.2052
 42169 OH2         -7.2210    17.8720    36.7920 O.3    7753  TIP7603    -0.4105
 42170 H1          -6.2970    18.1120    36.7270 H      7753  TIP7603     0.2052
 42171 H2          -7.5860    18.0910    35.9340 H      7753  TIP7603     0.2052
 42172 OH2        -30.1790     1.3020   -41.2860 O.3    7754  TIP7604    -0.4105
 42173 H1         -29.5950     1.4730   -42.0250 H      7754  TIP7604     0.2052
 42174 H2         -29.9920     0.3960   -41.0380 H      7754  TIP7604     0.2052
 42175 OH2          3.5140   -20.5750    39.7650 O.3    7755  TIP7605    -0.4105
 42176 H1           4.0530   -19.7850    39.8040 H      7755  TIP7605     0.2052
 42177 H2           3.1480   -20.5720    38.8800 H      7755  TIP7605     0.2052
 42178 OH2        -11.8490   -21.1920    38.1870 O.3    7756  TIP7606    -0.4105
 42179 H1         -11.2400   -20.4650    38.3190 H      7756  TIP7606     0.2052
 42180 H2         -11.6730   -21.4940    37.2960 H      7756  TIP7606     0.2052
 42181 OH2         25.0610    -8.6770    45.7090 O.3    7757  TIP7607    -0.4105
 42182 H1          25.1560    -9.0460    44.8310 H      7757  TIP7607     0.2052
 42183 H2          25.8560    -8.1590    45.8390 H      7757  TIP7607     0.2052
 42184 OH2         27.7100   -28.3150    31.9820 O.3    7758  TIP7608    -0.4105
 42185 H1          27.2620   -28.0510    32.7850 H      7758  TIP7608     0.2052
 42186 H2          27.1490   -27.9900    31.2770 H      7758  TIP7608     0.2052
 42187 OH2         31.2560    -2.8540    31.2990 O.3    7759  TIP7609    -0.4105
 42188 H1          32.1600    -2.5410    31.3030 H      7759  TIP7609     0.2052
 42189 H2          31.1760    -3.3450    30.4810 H      7759  TIP7609     0.2052
 42190 OH2         28.9990    -3.5020   -17.0360 O.3    7760  TIP7610    -0.4105
 42191 H1          28.1180    -3.8760   -17.0440 H      7760  TIP7610     0.2052
 42192 H2          29.4350    -3.9310   -16.2990 H      7760  TIP7610     0.2052
 42193 OH2          9.3080    11.5950   -33.8760 O.3    7761  TIP7611    -0.4105
 42194 H1           8.7130    12.2950   -34.1430 H      7761  TIP7611     0.2052
 42195 H2           8.8720    11.1800   -33.1320 H      7761  TIP7611     0.2052
 42196 OH2         21.8260    -1.3490    20.4440 O.3    7762  TIP7612    -0.4105
 42197 H1          22.2000    -0.5600    20.0510 H      7762  TIP7612     0.2052
 42198 H2          21.2670    -1.7160    19.7600 H      7762  TIP7612     0.2052
 42199 OH2        -29.9280   -32.5350   -54.9400 O.3    7763  TIP7613    -0.4105
 42200 H1         -30.6510   -32.7840   -54.3650 H      7763  TIP7613     0.2052
 42201 H2         -30.3370   -32.3950   -55.7940 H      7763  TIP7613     0.2052
 42202 OH2         -9.1140    15.5070    19.2840 O.3    7764  TIP7614    -0.4105
 42203 H1          -8.5990    14.7010    19.3140 H      7764  TIP7614     0.2052
 42204 H2          -8.4640    16.2050    19.2060 H      7764  TIP7614     0.2052
 42205 OH2         17.2980     4.2660    34.0850 O.3    7765  TIP7615    -0.4105
 42206 H1          18.1730     4.0630    34.4150 H      7765  TIP7615     0.2052
 42207 H2          17.4290     4.4550    33.1560 H      7765  TIP7615     0.2052
 42208 OH2          3.3920   -28.7770    32.6450 O.3    7766  TIP7616    -0.4105
 42209 H1           2.9500   -28.0500    32.2070 H      7766  TIP7616     0.2052
 42210 H2           3.5560   -29.4130    31.9480 H      7766  TIP7616     0.2052
 42211 OH2          8.0680    -4.6860    -6.3010 O.3    7767  TIP7617    -0.4105
 42212 H1           7.5840    -4.3370    -7.0490 H      7767  TIP7617     0.2052
 42213 H2           8.6040    -3.9530    -5.9980 H      7767  TIP7617     0.2052
 42214 OH2        -23.2780    19.7540    23.3330 O.3    7768  TIP7618    -0.4105
 42215 H1         -22.9480    19.1740    22.6480 H      7768  TIP7618     0.2052
 42216 H2         -22.8300    20.5860    23.1800 H      7768  TIP7618     0.2052
 42217 OH2         22.8150    19.1370    21.6150 O.3    7769  TIP7619    -0.4105
 42218 H1          23.3360    19.8620    21.2690 H      7769  TIP7619     0.2052
 42219 H2          23.4540    18.5640    22.0390 H      7769  TIP7619     0.2052
 42220 OH2        -13.4100   -29.7400   -29.0830 O.3    7770  TIP7620    -0.4105
 42221 H1         -13.8950   -28.9570   -28.8200 H      7770  TIP7620     0.2052
 42222 H2         -13.2250   -30.1940   -28.2620 H      7770  TIP7620     0.2052
 42223 OH2        -14.2340   -28.4100    24.1320 O.3    7771  TIP7621    -0.4105
 42224 H1         -13.4180   -28.0270    23.8100 H      7771  TIP7621     0.2052
 42225 H2         -14.5530   -27.7840    24.7820 H      7771  TIP7621     0.2052
 42226 OH2        -30.5630    18.7180    31.4800 O.3    7772  TIP7622    -0.4105
 42227 H1         -30.8830    18.5390    32.3640 H      7772  TIP7622     0.2052
 42228 H2         -30.7970    19.6330    31.3210 H      7772  TIP7622     0.2052
 42229 OH2         31.9100   -30.0810   -38.6500 O.3    7773  TIP7623    -0.4105
 42230 H1          31.3310   -30.3300   -39.3700 H      7773  TIP7623     0.2052
 42231 H2          31.8880   -30.8300   -38.0540 H      7773  TIP7623     0.2052
 42232 OH2          4.5860    11.7660    18.7380 O.3    7774  TIP7624    -0.4105
 42233 H1           4.9980    11.5000    19.5600 H      7774  TIP7624     0.2052
 42234 H2           3.8430    12.3070    19.0060 H      7774  TIP7624     0.2052
 42235 OH2         -3.1330    10.4130   -41.6100 O.3    7775  TIP7625    -0.4105
 42236 H1          -2.3700    10.5880   -41.0600 H      7775  TIP7625     0.2052
 42237 H2          -3.3680     9.5060   -41.4140 H      7775  TIP7625     0.2052
 42238 OH2        -19.7900   -20.1890   -50.7260 O.3    7776  TIP7626    -0.4105
 42239 H1         -19.2820   -20.0140   -51.5180 H      7776  TIP7626     0.2052
 42240 H2         -20.4320   -19.4810   -50.6910 H      7776  TIP7626     0.2052
 42241 OH2         17.2930   -17.0480   -24.1940 O.3    7777  TIP7627    -0.4105
 42242 H1          17.4490   -16.1500   -23.9030 H      7777  TIP7627     0.2052
 42243 H2          18.1380   -17.4850   -24.0850 H      7777  TIP7627     0.2052
 42244 OH2         -3.3410   -30.5230    13.9540 O.3    7778  TIP7628    -0.4105
 42245 H1          -2.6490   -30.3190    14.5840 H      7778  TIP7628     0.2052
 42246 H2          -3.8910   -31.1660    14.4020 H      7778  TIP7628     0.2052
 42247 OH2         32.6550    12.9950   -53.6900 O.3    7779  TIP7629    -0.4105
 42248 H1          33.2880    12.2840   -53.5850 H      7779  TIP7629     0.2052
 42249 H2          33.0250    13.7220   -53.1900 H      7779  TIP7629     0.2052
 42250 OH2         -7.0770    -6.9790    53.0650 O.3    7780  TIP7630    -0.4105
 42251 H1          -7.4290    -7.7840    53.4450 H      7780  TIP7630     0.2052
 42252 H2          -6.7410    -7.2450    52.2090 H      7780  TIP7630     0.2052
 42253 OH2         15.6500   -25.6790   -45.8170 O.3    7781  TIP7631    -0.4105
 42254 H1          15.8370   -25.8710   -46.7360 H      7781  TIP7631     0.2052
 42255 H2          15.1700   -24.8510   -45.8380 H      7781  TIP7631     0.2052
 42256 OH2        -21.3000     5.2690    39.4870 O.3    7782  TIP7632    -0.4105
 42257 H1         -21.9320     4.5530    39.5540 H      7782  TIP7632     0.2052
 42258 H2         -21.3520     5.7150    40.3320 H      7782  TIP7632     0.2052
 42259 OH2         21.0010    -2.8150    25.7550 O.3    7783  TIP7633    -0.4105
 42260 H1          21.1660    -1.8730    25.7960 H      7783  TIP7633     0.2052
 42261 H2          21.2170    -3.0570    24.8550 H      7783  TIP7633     0.2052
 42262 OH2         -5.0840    22.9910   -44.0090 O.3    7784  TIP7634    -0.4105
 42263 H1          -5.8400    23.3340   -44.4860 H      7784  TIP7634     0.2052
 42264 H2          -5.2950    23.1380   -43.0870 H      7784  TIP7634     0.2052
 42265 OH2        -22.8760   -25.6990    41.0390 O.3    7785  TIP7635    -0.4105
 42266 H1         -22.1480   -25.3660    40.5160 H      7785  TIP7635     0.2052
 42267 H2         -22.4640   -26.2690    41.6890 H      7785  TIP7635     0.2052
 42268 OH2         20.9070    15.3300   -33.3400 O.3    7786  TIP7636    -0.4105
 42269 H1          21.3670    14.7920   -33.9850 H      7786  TIP7636     0.2052
 42270 H2          21.1980    14.9910   -32.4930 H      7786  TIP7636     0.2052
 42271 OH2         19.6610    27.7080    41.2350 O.3    7787  TIP7637    -0.4105
 42272 H1          19.3560    26.8360    41.4850 H      7787  TIP7637     0.2052
 42273 H2          20.5850    27.7190    41.4830 H      7787  TIP7637     0.2052
 42274 OH2         19.4960    12.5860   -43.4700 O.3    7788  TIP7638    -0.4105
 42275 H1          19.2740    13.1930   -42.7640 H      7788  TIP7638     0.2052
 42276 H2          19.0980    11.7560   -43.2070 H      7788  TIP7638     0.2052
 42277 OH2         -0.4360    27.7710   -28.1920 O.3    7789  TIP7639    -0.4105
 42278 H1          -0.9830    27.2580   -28.7870 H      7789  TIP7639     0.2052
 42279 H2          -0.1290    28.5060   -28.7220 H      7789  TIP7639     0.2052
 42280 OH2        -17.0990   -17.1700   -26.7090 O.3    7790  TIP7640    -0.4105
 42281 H1         -16.3610   -16.6130   -26.4630 H      7790  TIP7640     0.2052
 42282 H2         -17.4770   -17.4500   -25.8760 H      7790  TIP7640     0.2052
 42283 OH2         27.8470    -4.9970   -28.2950 O.3    7791  TIP7641    -0.4105
 42284 H1          28.6560    -5.3730   -28.6410 H      7791  TIP7641     0.2052
 42285 H2          27.1520    -5.5530   -28.6490 H      7791  TIP7641     0.2052
 42286 OH2        -10.1940    -6.2060    34.3610 O.3    7792  TIP7642    -0.4105
 42287 H1          -9.8080    -5.3300    34.3820 H      7792  TIP7642     0.2052
 42288 H2         -10.0130    -6.5690    35.2280 H      7792  TIP7642     0.2052
 42289 OH2         -5.9850    -2.8950   -53.7100 O.3    7793  TIP7643    -0.4105
 42290 H1          -6.7000    -3.0430   -54.3300 H      7793  TIP7643     0.2052
 42291 H2          -5.1910    -2.9470   -54.2430 H      7793  TIP7643     0.2052
 42292 OH2         -4.6120    19.4670   -48.4370 O.3    7794  TIP7644    -0.4105
 42293 H1          -4.3430    20.0830   -47.7560 H      7794  TIP7644     0.2052
 42294 H2          -5.5620    19.3990   -48.3370 H      7794  TIP7644     0.2052
 42295 OH2          1.5220   -15.4850   -39.6870 O.3    7795  TIP7645    -0.4105
 42296 H1           2.0400   -16.2830   -39.5760 H      7795  TIP7645     0.2052
 42297 H2           1.3060   -15.4680   -40.6190 H      7795  TIP7645     0.2052
 42298 OH2        -17.7740     1.0760   -30.0070 O.3    7796  TIP7646    -0.4105
 42299 H1         -17.2240     1.7310   -30.4360 H      7796  TIP7646     0.2052
 42300 H2         -17.7690     1.3250   -29.0830 H      7796  TIP7646     0.2052
 42301 OH2         24.5030   -12.2070   -23.4280 O.3    7797  TIP7647    -0.4105
 42302 H1          24.4590   -11.9630   -24.3520 H      7797  TIP7647     0.2052
 42303 H2          24.8730   -11.4390   -22.9940 H      7797  TIP7647     0.2052
 42304 OH2        -23.6280   -22.7690    28.0690 O.3    7798  TIP7648    -0.4105
 42305 H1         -23.8240   -23.3160    27.3080 H      7798  TIP7648     0.2052
 42306 H2         -23.0100   -23.2880    28.5840 H      7798  TIP7648     0.2052
 42307 OH2         24.1780    11.9870    33.6390 O.3    7799  TIP7649    -0.4105
 42308 H1          23.7020    12.0030    32.8090 H      7799  TIP7649     0.2052
 42309 H2          23.5720    11.5730    34.2550 H      7799  TIP7649     0.2052
 42310 OH2          1.2400    23.4570    38.4250 O.3    7800  TIP7650    -0.4105
 42311 H1           0.9870    23.0480    39.2530 H      7800  TIP7650     0.2052
 42312 H2           2.0570    23.9130    38.6230 H      7800  TIP7650     0.2052
 42313 OH2          8.7560   -32.0910   -48.7530 O.3    7801  TIP7651    -0.4105
 42314 H1           9.0150   -31.2310   -49.0830 H      7801  TIP7651     0.2052
 42315 H2           9.1760   -32.1550   -47.8960 H      7801  TIP7651     0.2052
 42316 OH2        -30.6930     2.0700   -38.6130 O.3    7802  TIP7652    -0.4105
 42317 H1         -30.6740     1.7360   -39.5100 H      7802  TIP7652     0.2052
 42318 H2         -30.4470     2.9910   -38.6940 H      7802  TIP7652     0.2052
 42319 OH2         -7.5950    10.2600    54.2570 O.3    7803  TIP7653    -0.4105
 42320 H1          -6.9000    10.8660    53.9970 H      7803  TIP7653     0.2052
 42321 H2          -7.4300    10.0890    55.1840 H      7803  TIP7653     0.2052
 42322 OH2        -31.5480     3.8850    28.5720 O.3    7804  TIP7654    -0.4105
 42323 H1         -30.8060     3.4090    28.1990 H      7804  TIP7654     0.2052
 42324 H2         -31.1490     4.5760    29.1010 H      7804  TIP7654     0.2052
 42325 OH2        -21.4850    15.1010    40.9140 O.3    7805  TIP7655    -0.4105
 42326 H1         -22.1250    15.2330    41.6130 H      7805  TIP7655     0.2052
 42327 H2         -20.6790    14.8560    41.3680 H      7805  TIP7655     0.2052
 42328 OH2        -29.6090   -28.7230    28.5360 O.3    7806  TIP7656    -0.4105
 42329 H1         -28.9360   -28.8460    29.2050 H      7806  TIP7656     0.2052
 42330 H2         -30.3780   -29.1750    28.8830 H      7806  TIP7656     0.2052
 42331 OH2         20.5850   -30.9230   -42.4940 O.3    7807  TIP7657    -0.4105
 42332 H1          19.9790   -31.6430   -42.6730 H      7807  TIP7657     0.2052
 42333 H2          21.0950   -30.8330   -43.2990 H      7807  TIP7657     0.2052
 42334 OH2        -27.8050   -14.3040    16.2180 O.3    7808  TIP7658    -0.4105
 42335 H1         -28.2990   -15.0840    15.9630 H      7808  TIP7658     0.2052
 42336 H2         -28.3750   -13.5720    15.9850 H      7808  TIP7658     0.2052
 42337 OH2        -28.4430    29.3650    28.3870 O.3    7809  TIP7659    -0.4105
 42338 H1         -28.3240    29.6850    29.2810 H      7809  TIP7659     0.2052
 42339 H2         -28.0690    30.0520    27.8350 H      7809  TIP7659     0.2052
 42340 OH2          6.7630   -16.5590    50.7600 O.3    7810  TIP7660    -0.4105
 42341 H1           6.4460   -15.9650    50.0790 H      7810  TIP7660     0.2052
 42342 H2           6.0730   -17.2170    50.8440 H      7810  TIP7660     0.2052
 42343 OH2         -5.3520    -6.3190    24.7770 O.3    7811  TIP7661    -0.4105
 42344 H1          -4.6410    -6.6920    24.2550 H      7811  TIP7661     0.2052
 42345 H2          -5.0090    -5.4800    25.0850 H      7811  TIP7661     0.2052
 42346 OH2         26.2850   -30.2470    47.5020 O.3    7812  TIP7662    -0.4105
 42347 H1          25.9740   -30.1570    46.6010 H      7812  TIP7662     0.2052
 42348 H2          27.1650   -29.8700    47.4900 H      7812  TIP7662     0.2052
 42349 OH2        -29.4650   -17.0530   -37.6280 O.3    7813  TIP7663    -0.4105
 42350 H1         -29.0050   -16.6130   -36.9140 H      7813  TIP7663     0.2052
 42351 H2         -29.5390   -17.9640   -37.3410 H      7813  TIP7663     0.2052
 42352 OH2         20.3050   -27.5620   -48.6860 O.3    7814  TIP7664    -0.4105
 42353 H1          21.2060   -27.4030   -48.4020 H      7814  TIP7664     0.2052
 42354 H2          20.2550   -27.1680   -49.5570 H      7814  TIP7664     0.2052
 42355 OH2         16.6060   -29.3120    35.2250 O.3    7815  TIP7665    -0.4105
 42356 H1          16.6290   -29.4940    36.1640 H      7815  TIP7665     0.2052
 42357 H2          15.7650   -28.8750    35.0860 H      7815  TIP7665     0.2052
 42358 OH2         -2.0390    -7.8980    31.6410 O.3    7816  TIP7666    -0.4105
 42359 H1          -2.4320    -7.2990    31.0060 H      7816  TIP7666     0.2052
 42360 H2          -2.3210    -8.7680    31.3560 H      7816  TIP7666     0.2052
 42361 OH2        -23.7670    -5.1810   -32.0980 O.3    7817  TIP7667    -0.4105
 42362 H1         -23.0770    -4.7490   -31.5940 H      7817  TIP7667     0.2052
 42363 H2         -24.2470    -4.4630   -32.5100 H      7817  TIP7667     0.2052
 42364 OH2          3.3360   -15.6340    47.6010 O.3    7818  TIP7668    -0.4105
 42365 H1           3.8750   -16.3180    47.2030 H      7818  TIP7668     0.2052
 42366 H2           3.0740   -15.0780    46.8670 H      7818  TIP7668     0.2052
 42367 OH2         -6.8100   -32.7330    50.2350 O.3    7819  TIP7669    -0.4105
 42368 H1          -6.6440   -33.6400    50.4940 H      7819  TIP7669     0.2052
 42369 H2          -5.9850   -32.2790    50.4110 H      7819  TIP7669     0.2052
 42370 OH2        -30.2190     2.7080    22.5720 O.3    7820  TIP7670    -0.4105
 42371 H1         -29.4710     3.1280    22.1480 H      7820  TIP7670     0.2052
 42372 H2         -29.9270     1.8130    22.7430 H      7820  TIP7670     0.2052
 42373 OH2         15.7580   -10.0330   -52.7920 O.3    7821  TIP7671    -0.4105
 42374 H1          16.1990   -10.8360   -53.0700 H      7821  TIP7671     0.2052
 42375 H2          15.4480   -10.2250   -51.9070 H      7821  TIP7671     0.2052
 42376 OH2         -1.2150    -4.9580   -49.1100 O.3    7822  TIP7672    -0.4105
 42377 H1          -1.4790    -4.8520   -50.0240 H      7822  TIP7672     0.2052
 42378 H2          -1.8000    -4.3780   -48.6230 H      7822  TIP7672     0.2052
 42379 OH2          9.4020    28.9980   -27.4530 O.3    7823  TIP7673    -0.4105
 42380 H1           9.7350    29.7800   -27.8920 H      7823  TIP7673     0.2052
 42381 H2           9.1620    29.2990   -26.5760 H      7823  TIP7673     0.2052
 42382 OH2         32.6350    -3.0720   -45.3230 O.3    7824  TIP7674    -0.4105
 42383 H1          32.1010    -3.4430   -46.0240 H      7824  TIP7674     0.2052
 42384 H2          33.0230    -2.2850   -45.7070 H      7824  TIP7674     0.2052
 42385 OH2          8.9380    -9.2090   -51.1340 O.3    7825  TIP7675    -0.4105
 42386 H1           8.4700    -8.7490   -50.4370 H      7825  TIP7675     0.2052
 42387 H2           9.8290    -8.8590   -51.0950 H      7825  TIP7675     0.2052
 42388 OH2          2.1990    -5.6790    40.6230 O.3    7826  TIP7676    -0.4105
 42389 H1           1.7080    -6.4840    40.4600 H      7826  TIP7676     0.2052
 42390 H2           1.5750    -4.9770    40.4380 H      7826  TIP7676     0.2052
 42391 OH2         18.5010   -19.4790   -43.3890 O.3    7827  TIP7677    -0.4105
 42392 H1          18.3940   -19.6980   -44.3140 H      7827  TIP7677     0.2052
 42393 H2          19.3610   -19.8290   -43.1570 H      7827  TIP7677     0.2052
 42394 OH2         13.8110   -22.2640    40.9850 O.3    7828  TIP7678    -0.4105
 42395 H1          13.0540   -21.7360    41.2390 H      7828  TIP7678     0.2052
 42396 H2          13.5360   -23.1680    41.1410 H      7828  TIP7678     0.2052
 42397 OH2         23.2420   -22.2710   -30.8550 O.3    7829  TIP7679    -0.4105
 42398 H1          22.7250   -22.7290   -30.1930 H      7829  TIP7679     0.2052
 42399 H2          23.5860   -21.5020   -30.4000 H      7829  TIP7679     0.2052
 42400 OH2        -20.1920   -24.8530    43.4330 O.3    7830  TIP7680    -0.4105
 42401 H1         -20.9210   -25.4700    43.3650 H      7830  TIP7680     0.2052
 42402 H2         -20.4770   -24.0900    42.9300 H      7830  TIP7680     0.2052
 42403 OH2        -23.7240    16.1370    47.3100 O.3    7831  TIP7681    -0.4105
 42404 H1         -23.1450    16.8530    47.0490 H      7831  TIP7681     0.2052
 42405 H2         -24.5920    16.5370    47.3620 H      7831  TIP7681     0.2052
 42406 OH2         22.5860    -3.3100   -21.4060 O.3    7832  TIP7682    -0.4105
 42407 H1          22.8800    -2.4000   -21.4330 H      7832  TIP7682     0.2052
 42408 H2          23.3250    -3.8120   -21.7490 H      7832  TIP7682     0.2052
 42409 OH2         -8.1100    17.7190   -42.0040 O.3    7833  TIP7683    -0.4105
 42410 H1          -8.2000    16.7760   -41.8640 H      7833  TIP7683     0.2052
 42411 H2          -8.7430    17.9210   -42.6930 H      7833  TIP7683     0.2052
 42412 OH2         -9.8020    -9.7690   -34.0370 O.3    7834  TIP7684    -0.4105
 42413 H1          -9.1710    -9.0560   -33.9430 H      7834  TIP7684     0.2052
 42414 H2          -9.4800   -10.4530   -33.4510 H      7834  TIP7684     0.2052
 42415 OH2         14.6760   -31.3000    36.8070 O.3    7835  TIP7685    -0.4105
 42416 H1          13.8940   -31.7970    37.0480 H      7835  TIP7685     0.2052
 42417 H2          14.3440   -30.4380    36.5560 H      7835  TIP7685     0.2052
 42418 OH2         24.6960    28.0190   -49.0660 O.3    7836  TIP7686    -0.4105
 42419 H1          24.1130    27.3640   -48.6820 H      7836  TIP7686     0.2052
 42420 H2          24.3610    28.8560   -48.7420 H      7836  TIP7686     0.2052
 42421 OH2        -23.4900     4.7920   -31.0790 O.3    7837  TIP7687    -0.4105
 42422 H1         -22.8920     4.0730   -30.8750 H      7837  TIP7687     0.2052
 42423 H2         -23.6410     4.7190   -32.0220 H      7837  TIP7687     0.2052
 42424 OH2         12.3150   -27.5750    33.2360 O.3    7838  TIP7688    -0.4105
 42425 H1          12.2150   -28.2450    32.5600 H      7838  TIP7688     0.2052
 42426 H2          13.2600   -27.4360    33.2980 H      7838  TIP7688     0.2052
 42427 OH2         13.5030   -24.6570    51.8510 O.3    7839  TIP7689    -0.4105
 42428 H1          13.8820   -24.4690    50.9920 H      7839  TIP7689     0.2052
 42429 H2          13.4280   -25.6110    51.8760 H      7839  TIP7689     0.2052
 42430 OH2         -4.5320    24.2550    16.3720 O.3    7840  TIP7690    -0.4105
 42431 H1          -5.4190    24.4930    16.6440 H      7840  TIP7690     0.2052
 42432 H2          -4.0330    24.2150    17.1880 H      7840  TIP7690     0.2052
 42433 OH2         26.1420    -2.3610   -52.8690 O.3    7841  TIP7691    -0.4105
 42434 H1          26.2720    -1.7110   -52.1780 H      7841  TIP7691     0.2052
 42435 H2          25.3100    -2.7810   -52.6490 H      7841  TIP7691     0.2052
 42436 OH2         -5.0800    19.3950    27.2450 O.3    7842  TIP7692    -0.4105
 42437 H1          -5.6260    18.7690    27.7190 H      7842  TIP7692     0.2052
 42438 H2          -5.0170    19.0370    26.3590 H      7842  TIP7692     0.2052
 42439 OH2         26.6280    26.9340   -46.3650 O.3    7843  TIP7693    -0.4105
 42440 H1          27.5160    26.6080   -46.5090 H      7843  TIP7693     0.2052
 42441 H2          26.1430    26.6600   -47.1430 H      7843  TIP7693     0.2052
 42442 OH2        -26.1770     0.2400   -46.7930 O.3    7844  TIP7694    -0.4105
 42443 H1         -26.1700    -0.3380   -46.0300 H      7844  TIP7694     0.2052
 42444 H2         -26.6270    -0.2630   -47.4720 H      7844  TIP7694     0.2052
 42445 OH2         -8.3810    31.0410   -42.0360 O.3    7845  TIP7695    -0.4105
 42446 H1          -8.8710    31.7400   -41.6040 H      7845  TIP7695     0.2052
 42447 H2          -7.6980    31.4960   -42.5290 H      7845  TIP7695     0.2052
 42448 OH2          3.8870   -12.6810   -33.3480 O.3    7846  TIP7696    -0.4105
 42449 H1           4.1060   -13.0980   -34.1820 H      7846  TIP7696     0.2052
 42450 H2           3.5300   -13.3890   -32.8120 H      7846  TIP7696     0.2052
 42451 OH2          9.6510   -23.7450    37.6290 O.3    7847  TIP7697    -0.4105
 42452 H1          10.5270   -23.3600    37.6570 H      7847  TIP7697     0.2052
 42453 H2           9.5170   -23.9690    36.7080 H      7847  TIP7697     0.2052
 42454 OH2          1.3820   -16.8350   -45.2350 O.3    7848  TIP7698    -0.4105
 42455 H1           1.6300   -17.4970   -45.8800 H      7848  TIP7698     0.2052
 42456 H2           2.1250   -16.7980   -44.6320 H      7848  TIP7698     0.2052
 42457 OH2         -8.4780    -2.2900   -49.1580 O.3    7849  TIP7699    -0.4105
 42458 H1          -7.5990    -1.9110   -49.1360 H      7849  TIP7699     0.2052
 42459 H2          -8.7390    -2.2370   -50.0770 H      7849  TIP7699     0.2052
 42460 OH2        -14.1120   -11.2410    35.6520 O.3    7850  TIP7700    -0.4105
 42461 H1         -14.1040   -10.9640    34.7360 H      7850  TIP7700     0.2052
 42462 H2         -13.2490   -11.6290    35.7930 H      7850  TIP7700     0.2052
 42463 OH2        -28.3620    21.0150    15.6050 O.3    7851  TIP7701    -0.4105
 42464 H1         -28.8690    20.7750    14.8300 H      7851  TIP7701     0.2052
 42465 H2         -28.5830    20.3460    16.2540 H      7851  TIP7701     0.2052
 42466 OH2         16.1690    30.6260   -51.1860 O.3    7852  TIP7702    -0.4105
 42467 H1          15.3980    30.0900   -51.3760 H      7852  TIP7702     0.2052
 42468 H2          16.5120    30.2720   -50.3660 H      7852  TIP7702     0.2052
 42469 OH2         -3.2620    -9.1640   -50.7760 O.3    7853  TIP7703    -0.4105
 42470 H1          -2.9260    -8.8410   -49.9400 H      7853  TIP7703     0.2052
 42471 H2          -2.5340    -9.0520   -51.3870 H      7853  TIP7703     0.2052
 42472 OH2        -10.1800   -24.7570   -33.3870 O.3    7854  TIP7704    -0.4105
 42473 H1         -10.8700   -24.8260   -32.7270 H      7854  TIP7704     0.2052
 42474 H2          -9.9370   -25.6640   -33.5750 H      7854  TIP7704     0.2052
 42475 OH2          8.4670    10.7820    44.1100 O.3    7855  TIP7705    -0.4105
 42476 H1           8.0300    10.1680    44.7010 H      7855  TIP7705     0.2052
 42477 H2           9.1690    10.2700    43.7090 H      7855  TIP7705     0.2052
 42478 OH2        -18.4310    27.0590    41.2720 O.3    7856  TIP7706    -0.4105
 42479 H1         -18.9140    27.5530    41.9340 H      7856  TIP7706     0.2052
 42480 H2         -19.0750    26.8860    40.5850 H      7856  TIP7706     0.2052
 42481 OH2        -29.8060     6.1310   -54.3300 O.3    7857  TIP7707    -0.4105
 42482 H1         -29.6110     5.8640   -55.2280 H      7857  TIP7707     0.2052
 42483 H2         -30.6610     6.5580   -54.3870 H      7857  TIP7707     0.2052
 42484 OH2        -15.0950    10.6170    54.4870 O.3    7858  TIP7708    -0.4105
 42485 H1         -14.6480     9.8780    54.9010 H      7858  TIP7708     0.2052
 42486 H2         -14.8510    11.3740    55.0200 H      7858  TIP7708     0.2052
 42487 OH2        -29.4380     6.5400   -31.0450 O.3    7859  TIP7709    -0.4105
 42488 H1         -29.5940     6.9710   -30.2040 H      7859  TIP7709     0.2052
 42489 H2         -29.5050     7.2440   -31.6900 H      7859  TIP7709     0.2052
 42490 OH2        -27.2280    14.7770    17.8500 O.3    7860  TIP7710    -0.4105
 42491 H1         -27.5970    13.9450    17.5550 H      7860  TIP7710     0.2052
 42492 H2         -26.9480    15.2140    17.0460 H      7860  TIP7710     0.2052
 42493 OH2         -5.0280   -27.6810   -34.4120 O.3    7861  TIP7711    -0.4105
 42494 H1          -5.5470   -28.3910   -34.7900 H      7861  TIP7711     0.2052
 42495 H2          -5.3700   -26.8880   -34.8240 H      7861  TIP7711     0.2052
 42496 OH2         28.4620     8.5460   -31.2660 O.3    7862  TIP7712    -0.4105
 42497 H1          27.6890     8.1050   -31.6200 H      7862  TIP7712     0.2052
 42498 H2          29.1780     7.9260   -31.4060 H      7862  TIP7712     0.2052
 42499 OH2        -27.5150     5.4230    51.6770 O.3    7863  TIP7713    -0.4105
 42500 H1         -26.7240     5.1220    51.2310 H      7863  TIP7713     0.2052
 42501 H2         -27.2260     5.6260    52.5670 H      7863  TIP7713     0.2052
 42502 OH2         -2.7530   -29.1460   -39.9840 O.3    7864  TIP7714    -0.4105
 42503 H1          -2.5210   -29.7840   -40.6590 H      7864  TIP7714     0.2052
 42504 H2          -2.8640   -29.6680   -39.1890 H      7864  TIP7714     0.2052
 42505 OH2         19.1460    26.3230   -22.2100 O.3    7865  TIP7715    -0.4105
 42506 H1          19.4460    25.4570   -22.4840 H      7865  TIP7715     0.2052
 42507 H2          18.3230    26.4530   -22.6830 H      7865  TIP7715     0.2052
 42508 OH2        -14.6370    -4.9640    48.1550 O.3    7866  TIP7716    -0.4105
 42509 H1         -13.7060    -5.1700    48.0820 H      7866  TIP7716     0.2052
 42510 H2         -14.7940    -4.8910    49.0960 H      7866  TIP7716     0.2052
 42511 OH2         16.6520   -28.4200    24.6890 O.3    7867  TIP7717    -0.4105
 42512 H1          17.3640   -27.9890    25.1630 H      7867  TIP7717     0.2052
 42513 H2          16.2230   -27.7140    24.2070 H      7867  TIP7717     0.2052
 42514 OH2         -7.5300    -0.7030   -34.4910 O.3    7868  TIP7718    -0.4105
 42515 H1          -7.1280     0.1550   -34.6270 H      7868  TIP7718     0.2052
 42516 H2          -7.8790    -0.9440   -35.3490 H      7868  TIP7718     0.2052
 42517 OH2        -31.1330     9.4960    23.1000 O.3    7869  TIP7719    -0.4105
 42518 H1         -31.6610     8.7580    23.4070 H      7869  TIP7719     0.2052
 42519 H2         -31.7600    10.0780    22.6720 H      7869  TIP7719     0.2052
 42520 OH2         13.9180    18.1500    23.9020 O.3    7870  TIP7720    -0.4105
 42521 H1          14.8520    18.3560    23.9340 H      7870  TIP7720     0.2052
 42522 H2          13.7440    17.6930    24.7250 H      7870  TIP7720     0.2052
 42523 OH2        -22.2930     4.7100    46.5490 O.3    7871  TIP7721    -0.4105
 42524 H1         -22.6440     4.2580    47.3160 H      7871  TIP7721     0.2052
 42525 H2         -21.3680     4.4630    46.5270 H      7871  TIP7721     0.2052
 42526 OH2         16.9210    24.5930   -51.0050 O.3    7872  TIP7722    -0.4105
 42527 H1          16.4070    23.8200   -51.2360 H      7872  TIP7722     0.2052
 42528 H2          16.6760    24.7830   -50.0990 H      7872  TIP7722     0.2052
 42529 OH2          7.1620   -26.1150    51.6560 O.3    7873  TIP7723    -0.4105
 42530 H1           7.1940   -25.4210    52.3140 H      7873  TIP7723     0.2052
 42531 H2           7.4380   -26.9030    52.1240 H      7873  TIP7723     0.2052
 42532 OH2        -15.9170   -13.2010    23.0440 O.3    7874  TIP7724    -0.4105
 42533 H1         -15.0630   -13.0100    23.4310 H      7874  TIP7724     0.2052
 42534 H2         -16.5490   -12.8770    23.6850 H      7874  TIP7724     0.2052
 42535 OH2        -25.6000   -20.8770   -54.2230 O.3    7875  TIP7725    -0.4105
 42536 H1         -25.4130   -20.4280   -53.3980 H      7875  TIP7725     0.2052
 42537 H2         -24.7730   -20.8500   -54.7040 H      7875  TIP7725     0.2052
 42538 OH2          0.3240   -27.9830    31.9740 O.3    7876  TIP7726    -0.4105
 42539 H1           0.4140   -28.9350    32.0190 H      7876  TIP7726     0.2052
 42540 H2           0.4950   -27.7690    31.0570 H      7876  TIP7726     0.2052
 42541 OH2         -5.3110   -20.2670   -34.0030 O.3    7877  TIP7727    -0.4105
 42542 H1          -4.7490   -20.9880   -33.7190 H      7877  TIP7727     0.2052
 42543 H2          -5.7360   -20.5920   -34.7970 H      7877  TIP7727     0.2052
 42544 OH2        -18.0480    24.7750    50.5780 O.3    7878  TIP7728    -0.4105
 42545 H1         -18.7810    25.3120    50.8800 H      7878  TIP7728     0.2052
 42546 H2         -17.3200    25.3900    50.4900 H      7878  TIP7728     0.2052
 42547 OH2        -10.5290   -13.8470   -30.6400 O.3    7879  TIP7729    -0.4105
 42548 H1         -10.1530   -14.7270   -30.6130 H      7879  TIP7729     0.2052
 42549 H2         -11.4740   -13.9890   -30.5950 H      7879  TIP7729     0.2052
 42550 OH2         -5.3190     3.5270    37.5310 O.3    7880  TIP7730    -0.4105
 42551 H1          -5.2310     2.5790    37.4350 H      7880  TIP7730     0.2052
 42552 H2          -6.2500     3.6650    37.7070 H      7880  TIP7730     0.2052
 42553 OH2        -15.4930   -30.3570    51.2290 O.3    7881  TIP7731    -0.4105
 42554 H1         -15.3010   -29.5960    50.6810 H      7881  TIP7731     0.2052
 42555 H2         -14.8530   -30.3090    51.9390 H      7881  TIP7731     0.2052
 42556 OH2        -16.0980     1.3880   -27.2250 O.3    7882  TIP7732    -0.4105
 42557 H1         -16.0070     2.3120   -27.4570 H      7882  TIP7732     0.2052
 42558 H2         -15.2350     1.1390   -26.8940 H      7882  TIP7732     0.2052
 42559 OH2         30.1640    21.6660    46.2130 O.3    7883  TIP7733    -0.4105
 42560 H1          29.6750    21.1170    45.5990 H      7883  TIP7733     0.2052
 42561 H2          29.5320    22.3240    46.5020 H      7883  TIP7733     0.2052
 42562 OH2         -3.3270    -8.7110   -40.5230 O.3    7884  TIP7734    -0.4105
 42563 H1          -2.9240    -8.6780   -41.3910 H      7884  TIP7734     0.2052
 42564 H2          -3.9990    -8.0300   -40.5440 H      7884  TIP7734     0.2052
 42565 OH2        -25.9050    12.0080    52.6430 O.3    7885  TIP7735    -0.4105
 42566 H1         -25.9330    11.8130    51.7070 H      7885  TIP7735     0.2052
 42567 H2         -26.8220    12.0060    52.9160 H      7885  TIP7735     0.2052
 42568 OH2        -20.3290   -28.8270   -51.9310 O.3    7886  TIP7736    -0.4105
 42569 H1         -20.6970   -28.8300   -52.8150 H      7886  TIP7736     0.2052
 42570 H2         -19.8050   -29.6260   -51.8860 H      7886  TIP7736     0.2052
 42571 OH2        -30.1010    32.9120   -42.8420 O.3    7887  TIP7737    -0.4105
 42572 H1         -30.5950    33.4660   -43.4460 H      7887  TIP7737     0.2052
 42573 H2         -30.5610    32.9990   -42.0070 H      7887  TIP7737     0.2052
 42574 OH2        -20.5230     7.5540    45.6300 O.3    7888  TIP7738    -0.4105
 42575 H1         -20.1910     6.9830    44.9380 H      7888  TIP7738     0.2052
 42576 H2         -19.7680     7.7090    46.1980 H      7888  TIP7738     0.2052
 42577 OH2        -31.0390   -24.8060   -41.7330 O.3    7889  TIP7739    -0.4105
 42578 H1         -30.4770   -24.6900   -40.9660 H      7889  TIP7739     0.2052
 42579 H2         -31.2430   -23.9160   -42.0180 H      7889  TIP7739     0.2052
 42580 OH2         13.7850   -25.9630   -28.1270 O.3    7890  TIP7740    -0.4105
 42581 H1          13.4770   -26.8600   -28.0010 H      7890  TIP7740     0.2052
 42582 H2          13.0750   -25.5300   -28.6020 H      7890  TIP7740     0.2052
 42583 OH2         30.8610   -13.4200   -44.1950 O.3    7891  TIP7741    -0.4105
 42584 H1          30.4380   -12.6780   -43.7630 H      7891  TIP7741     0.2052
 42585 H2          30.5870   -13.3530   -45.1100 H      7891  TIP7741     0.2052
 42586 OH2        -15.5420    -3.9500    42.8690 O.3    7892  TIP7742    -0.4105
 42587 H1         -16.0910    -4.6060    43.2980 H      7892  TIP7742     0.2052
 42588 H2         -16.0660    -3.6450    42.1290 H      7892  TIP7742     0.2052
 42589 OH2        -17.0130   -20.9730    28.3680 O.3    7893  TIP7743    -0.4105
 42590 H1         -17.6610   -20.4450    28.8360 H      7893  TIP7743     0.2052
 42591 H2         -17.4560   -21.8050    28.2010 H      7893  TIP7743     0.2052
 42592 OH2          9.9620     4.7770   -52.4120 O.3    7894  TIP7744    -0.4105
 42593 H1           9.1360     5.0860   -52.7850 H      7894  TIP7744     0.2052
 42594 H2          10.5300     4.6360   -53.1700 H      7894  TIP7744     0.2052
 42595 OH2         21.4260     4.0620    38.3240 O.3    7895  TIP7745    -0.4105
 42596 H1          21.1380     3.8070    39.2010 H      7895  TIP7745     0.2052
 42597 H2          20.8100     4.7450    38.0590 H      7895  TIP7745     0.2052
 42598 OH2         21.7810    -9.8440   -25.6560 O.3    7896  TIP7746    -0.4105
 42599 H1          21.4230    -9.4470   -26.4500 H      7896  TIP7746     0.2052
 42600 H2          22.1870   -10.6570   -25.9570 H      7896  TIP7746     0.2052
 42601 OH2         26.9990    16.5630    27.2930 O.3    7897  TIP7747    -0.4105
 42602 H1          26.3360    16.7200    27.9650 H      7897  TIP7747     0.2052
 42603 H2          27.8330    16.6480    27.7550 H      7897  TIP7747     0.2052
 42604 OH2         23.7940    20.9570    19.5220 O.3    7898  TIP7748    -0.4105
 42605 H1          23.4210    20.6870    18.6830 H      7898  TIP7748     0.2052
 42606 H2          24.4610    21.6040    19.2910 H      7898  TIP7748     0.2052
 42607 OH2          1.9660   -13.4920    31.1280 O.3    7899  TIP7749    -0.4105
 42608 H1           1.8620   -13.7580    32.0420 H      7899  TIP7749     0.2052
 42609 H2           2.7330   -13.9760    30.8230 H      7899  TIP7749     0.2052
 42610 OH2          6.6760    -0.5130   -50.8220 O.3    7900  TIP7750    -0.4105
 42611 H1           5.9640     0.0060   -50.4480 H      7900  TIP7750     0.2052
 42612 H2           7.3190     0.1350   -51.1100 H      7900  TIP7750     0.2052
 42613 OH2          7.4680   -13.9350    37.1020 O.3    7901  TIP7751    -0.4105
 42614 H1           8.0310   -14.1140    37.8560 H      7901  TIP7751     0.2052
 42615 H2           6.6070   -13.7620    37.4820 H      7901  TIP7751     0.2052
 42616 OH2        -28.7620    -1.9620    30.5850 O.3    7902  TIP7752    -0.4105
 42617 H1         -28.7660    -1.4230    31.3760 H      7902  TIP7752     0.2052
 42618 H2         -29.0400    -2.8280    30.8840 H      7902  TIP7752     0.2052
 42619 OH2         14.2690    18.9410   -41.7330 O.3    7903  TIP7753    -0.4105
 42620 H1          13.5960    18.3420   -41.4090 H      7903  TIP7753     0.2052
 42621 H2          14.1360    19.7450   -41.2310 H      7903  TIP7753     0.2052
 42622 OH2          0.0040    -8.8750   -33.5720 O.3    7904  TIP7754    -0.4105
 42623 H1           0.1400    -8.4550   -34.4210 H      7904  TIP7754     0.2052
 42624 H2           0.8740    -9.1730   -33.3090 H      7904  TIP7754     0.2052
 42625 OH2         32.4130   -10.0470   -37.6980 O.3    7905  TIP7755    -0.4105
 42626 H1          31.7640    -9.9680   -36.9990 H      7905  TIP7755     0.2052
 42627 H2          32.0590    -9.5220   -38.4160 H      7905  TIP7755     0.2052
 42628 OH2         15.0390   -25.9220    20.7620 O.3    7906  TIP7756    -0.4105
 42629 H1          15.0970   -25.0130    20.4680 H      7906  TIP7756     0.2052
 42630 H2          14.7400   -26.4050    19.9920 H      7906  TIP7756     0.2052
 42631 OH2         -7.3680   -10.9250   -50.3840 O.3    7907  TIP7757    -0.4105
 42632 H1          -8.0960   -10.5350   -49.8990 H      7907  TIP7757     0.2052
 42633 H2          -6.5840   -10.5830   -49.9550 H      7907  TIP7757     0.2052
 42634 OH2         -8.1010     9.3040   -39.7300 O.3    7908  TIP7758    -0.4105
 42635 H1          -8.3060     8.8590   -40.5520 H      7908  TIP7758     0.2052
 42636 H2          -8.7540     8.9780   -39.1110 H      7908  TIP7758     0.2052
 42637 OH2        -25.9630    -7.1620   -40.6110 O.3    7909  TIP7759    -0.4105
 42638 H1         -26.7720    -7.2330   -40.1050 H      7909  TIP7759     0.2052
 42639 H2         -25.8280    -6.2200   -40.7170 H      7909  TIP7759     0.2052
 42640 OH2          9.7040   -26.1950    55.0870 O.3    7910  TIP7760    -0.4105
 42641 H1          10.0820   -25.3190    55.1640 H      7910  TIP7760     0.2052
 42642 H2          10.3770   -26.7080    54.6390 H      7910  TIP7760     0.2052
 42643 OH2         24.4520    18.5510   -15.6390 O.3    7911  TIP7761    -0.4105
 42644 H1          23.6690    18.0040   -15.5690 H      7911  TIP7761     0.2052
 42645 H2          25.1640    17.9910   -15.3310 H      7911  TIP7761     0.2052
 42646 OH2         18.3260    -5.8100    19.4690 O.3    7912  TIP7762    -0.4105
 42647 H1          18.3640    -4.9900    19.9610 H      7912  TIP7762     0.2052
 42648 H2          19.2190    -5.9390    19.1500 H      7912  TIP7762     0.2052
 42649 OH2        -25.7860   -31.2770   -31.9990 O.3    7913  TIP7763    -0.4105
 42650 H1         -26.2070   -31.9240   -31.4330 H      7913  TIP7763     0.2052
 42651 H2         -25.6330   -30.5230   -31.4300 H      7913  TIP7763     0.2052
 42652 OH2         29.6920    -9.9720    48.1380 O.3    7914  TIP7764    -0.4105
 42653 H1          29.8720    -9.6910    47.2410 H      7914  TIP7764     0.2052
 42654 H2          30.3270   -10.6700    48.3020 H      7914  TIP7764     0.2052
 42655 OH2          3.5340     1.4020    53.9540 O.3    7915  TIP7765    -0.4105
 42656 H1           3.6440     2.3350    54.1370 H      7915  TIP7765     0.2052
 42657 H2           4.2410     1.1920    53.3440 H      7915  TIP7765     0.2052
 42658 OH2         -7.0970     5.2190   -51.9410 O.3    7916  TIP7766    -0.4105
 42659 H1          -7.4080     6.1090   -51.7740 H      7916  TIP7766     0.2052
 42660 H2          -6.6400     5.2780   -52.7810 H      7916  TIP7766     0.2052
 42661 OH2         23.4040     8.4440    40.1800 O.3    7917  TIP7767    -0.4105
 42662 H1          22.6870     8.7160    40.7530 H      7917  TIP7767     0.2052
 42663 H2          23.6330     7.5660    40.4830 H      7917  TIP7767     0.2052
 42664 OH2          4.1950    -4.4410    32.2970 O.3    7918  TIP7768    -0.4105
 42665 H1           4.0560    -5.0620    33.0120 H      7918  TIP7768     0.2052
 42666 H2           4.9000    -3.8720    32.6070 H      7918  TIP7768     0.2052
 42667 OH2         13.2690     5.7710   -43.0290 O.3    7919  TIP7769    -0.4105
 42668 H1          12.5190     6.2080   -42.6240 H      7919  TIP7769     0.2052
 42669 H2          14.0320     6.1530   -42.5950 H      7919  TIP7769     0.2052
 42670 OH2         24.0190    18.2600   -28.9520 O.3    7920  TIP7770    -0.4105
 42671 H1          23.9650    17.3050   -28.9980 H      7920  TIP7770     0.2052
 42672 H2          24.4510    18.5150   -29.7680 H      7920  TIP7770     0.2052
 42673 OH2         14.0790   -24.0450   -33.5410 O.3    7921  TIP7771    -0.4105
 42674 H1          14.7490   -23.8430   -34.1950 H      7921  TIP7771     0.2052
 42675 H2          13.6470   -24.8310   -33.8750 H      7921  TIP7771     0.2052
 42676 OH2          9.6020    22.8020   -36.0970 O.3    7922  TIP7772    -0.4105
 42677 H1           9.9130    22.8090   -35.1910 H      7922  TIP7772     0.2052
 42678 H2          10.2360    22.2590   -36.5640 H      7922  TIP7772     0.2052
 42679 OH2         14.2640    -6.4920    40.4070 O.3    7923  TIP7773    -0.4105
 42680 H1          13.5650    -7.1450    40.3740 H      7923  TIP7773     0.2052
 42681 H2          13.8900    -5.7180    39.9840 H      7923  TIP7773     0.2052
 42682 OH2         20.0540   -15.0430   -37.0740 O.3    7924  TIP7774    -0.4105
 42683 H1          19.2220   -14.5750   -36.9900 H      7924  TIP7774     0.2052
 42684 H2          20.7210   -14.3790   -36.9000 H      7924  TIP7774     0.2052
 42685 OH2        -26.0270    31.4460    21.0790 O.3    7925  TIP7775    -0.4105
 42686 H1         -25.4340    31.8440    20.4420 H      7925  TIP7775     0.2052
 42687 H2         -26.1170    30.5380    20.7890 H      7925  TIP7775     0.2052
 42688 OH2         22.6790   -22.6550   -45.7770 O.3    7926  TIP7776    -0.4105
 42689 H1          23.0770   -22.6090   -46.6460 H      7926  TIP7776     0.2052
 42690 H2          22.6510   -23.5900   -45.5750 H      7926  TIP7776     0.2052
 42691 OH2         13.5630    10.0660   -50.4100 O.3    7927  TIP7777    -0.4105
 42692 H1          12.8620    10.6270   -50.0800 H      7927  TIP7777     0.2052
 42693 H2          13.9660    10.5750   -51.1140 H      7927  TIP7777     0.2052
 42694 OH2        -13.1880   -15.2740   -24.0950 O.3    7928  TIP7778    -0.4105
 42695 H1         -12.5900   -15.7120   -23.4900 H      7928  TIP7778     0.2052
 42696 H2         -13.9950   -15.1600   -23.5930 H      7928  TIP7778     0.2052
 42697 OH2        -12.3820    24.3860   -51.2620 O.3    7929  TIP7779    -0.4105
 42698 H1         -12.2730    25.3340   -51.3330 H      7929  TIP7779     0.2052
 42699 H2         -13.0070    24.1640   -51.9530 H      7929  TIP7779     0.2052
 42700 OH2          4.6420    22.1060   -33.2710 O.3    7930  TIP7780    -0.4105
 42701 H1           5.4270    21.6310   -32.9980 H      7930  TIP7780     0.2052
 42702 H2           4.7400    22.9740   -32.8800 H      7930  TIP7780     0.2052
 42703 OH2         29.6220     9.1340    23.4020 O.3    7931  TIP7781    -0.4105
 42704 H1          30.4450     9.6220    23.3610 H      7931  TIP7781     0.2052
 42705 H2          29.3140     9.1060    22.4960 H      7931  TIP7781     0.2052
 42706 OH2         -4.4940     6.8390    52.7170 O.3    7932  TIP7782    -0.4105
 42707 H1          -4.2060     5.9380    52.8610 H      7932  TIP7782     0.2052
 42708 H2          -4.0580     7.3440    53.4040 H      7932  TIP7782     0.2052
 42709 OH2          4.5190    27.9900   -30.5800 O.3    7933  TIP7783    -0.4105
 42710 H1           4.3830    28.9360   -30.5220 H      7933  TIP7783     0.2052
 42711 H2           3.7350    27.6110   -30.1820 H      7933  TIP7783     0.2052
 42712 OH2         29.1170    18.9940   -23.6750 O.3    7934  TIP7784    -0.4105
 42713 H1          29.3340    18.3820   -24.3790 H      7934  TIP7784     0.2052
 42714 H2          28.2840    19.3820   -23.9420 H      7934  TIP7784     0.2052
 42715 OH2        -10.7070   -31.4360    37.2470 O.3    7935  TIP7785    -0.4105
 42716 H1         -10.1460   -31.8660    36.6010 H      7935  TIP7785     0.2052
 42717 H2         -11.5980   -31.6640    36.9810 H      7935  TIP7785     0.2052
 42718 OH2         28.8260    27.4790   -33.0310 O.3    7936  TIP7786    -0.4105
 42719 H1          28.8980    27.7870   -32.1270 H      7936  TIP7786     0.2052
 42720 H2          28.7180    26.5310   -32.9530 H      7936  TIP7786     0.2052
 42721 OH2         -7.8460    27.9060    52.1020 O.3    7937  TIP7787    -0.4105
 42722 H1          -7.1090    27.3340    52.3150 H      7937  TIP7787     0.2052
 42723 H2          -7.6990    28.6930    52.6270 H      7937  TIP7787     0.2052
 42724 OH2          8.7200    30.5720    30.1480 O.3    7938  TIP7788    -0.4105
 42725 H1           9.1760    31.3870    29.9390 H      7938  TIP7788     0.2052
 42726 H2           7.9200    30.6020    29.6230 H      7938  TIP7788     0.2052
 42727 OH2        -28.3390   -14.6990    51.5230 O.3    7939  TIP7789    -0.4105
 42728 H1         -28.1080   -14.0010    50.9110 H      7939  TIP7789     0.2052
 42729 H2         -27.5150   -15.1550    51.6900 H      7939  TIP7789     0.2052
 42730 OH2          6.0690    -1.3650    47.8640 O.3    7940  TIP7790    -0.4105
 42731 H1           6.2650    -1.0360    46.9870 H      7940  TIP7790     0.2052
 42732 H2           5.9560    -2.3080    47.7460 H      7940  TIP7790     0.2052
 42733 OH2         14.7000   -13.9560    39.0500 O.3    7941  TIP7791    -0.4105
 42734 H1          15.2440   -13.9240    38.2630 H      7941  TIP7791     0.2052
 42735 H2          14.8050   -13.0930    39.4500 H      7941  TIP7791     0.2052
 42736 OH2         20.5380    14.2770   -51.5070 O.3    7942  TIP7792    -0.4105
 42737 H1          21.0050    14.2490   -52.3420 H      7942  TIP7792     0.2052
 42738 H2          21.1500    14.6970   -50.9040 H      7942  TIP7792     0.2052
 42739 OH2         -7.6360   -15.9130    53.9470 O.3    7943  TIP7793    -0.4105
 42740 H1          -7.7070   -15.8600    54.9000 H      7943  TIP7793     0.2052
 42741 H2          -7.8670   -16.8180    53.7380 H      7943  TIP7793     0.2052
 42742 OH2         13.2000   -16.1420   -45.8730 O.3    7944  TIP7794    -0.4105
 42743 H1          13.5710   -16.9440   -46.2420 H      7944  TIP7794     0.2052
 42744 H2          12.2600   -16.3160   -45.8180 H      7944  TIP7794     0.2052
 42745 OH2          8.8980   -23.7460   -40.3150 O.3    7945  TIP7795    -0.4105
 42746 H1           8.7980   -23.2540   -41.1300 H      7945  TIP7795     0.2052
 42747 H2           9.5170   -24.4440   -40.5310 H      7945  TIP7795     0.2052
 42748 OH2          1.8960    -5.6990   -27.9340 O.3    7946  TIP7796    -0.4105
 42749 H1           2.7490    -5.6400   -27.5030 H      7946  TIP7796     0.2052
 42750 H2           2.0900    -5.5950   -28.8650 H      7946  TIP7796     0.2052
 42751 OH2        -23.8530    -7.5350   -43.8690 O.3    7947  TIP7797    -0.4105
 42752 H1         -24.6370    -8.0730   -43.9760 H      7947  TIP7797     0.2052
 42753 H2         -23.1320    -8.1080   -44.1300 H      7947  TIP7797     0.2052
 42754 OH2         16.1420   -18.1910   -50.7290 O.3    7948  TIP7798    -0.4105
 42755 H1          15.3300   -18.6970   -50.7690 H      7948  TIP7798     0.2052
 42756 H2          16.8340   -18.8510   -50.6940 H      7948  TIP7798     0.2052
 42757 OH2          5.3240    -9.6200   -20.7950 O.3    7949  TIP7799    -0.4105
 42758 H1           5.9360    -8.8990   -20.9430 H      7949  TIP7799     0.2052
 42759 H2           5.8130   -10.4040   -21.0450 H      7949  TIP7799     0.2052
 42760 OH2         23.6100     0.6460   -40.8420 O.3    7950  TIP7800    -0.4105
 42761 H1          23.3080     0.7160   -39.9360 H      7950  TIP7800     0.2052
 42762 H2          22.8130     0.7110   -41.3670 H      7950  TIP7800     0.2052
 42763 OH2         15.7970   -25.9140    38.9040 O.3    7951  TIP7801    -0.4105
 42764 H1          16.4740   -26.0650    38.2440 H      7951  TIP7801     0.2052
 42765 H2          16.2000   -26.1860    39.7280 H      7951  TIP7801     0.2052
 42766 OH2         26.9650    -0.9900    42.4800 O.3    7952  TIP7802    -0.4105
 42767 H1          26.7840    -0.5120    43.2900 H      7952  TIP7802     0.2052
 42768 H2          26.3940    -1.7580    42.5220 H      7952  TIP7802     0.2052
 42769 OH2        -17.9620     4.9070   -17.2640 O.3    7953  TIP7803    -0.4105
 42770 H1         -18.0390     4.9900   -16.3140 H      7953  TIP7803     0.2052
 42771 H2         -18.6840     4.3310   -17.5140 H      7953  TIP7803     0.2052
 42772 OH2         -4.6550   -13.4380    49.2110 O.3    7954  TIP7804    -0.4105
 42773 H1          -5.3700   -12.8480    49.4500 H      7954  TIP7804     0.2052
 42774 H2          -4.9560   -13.8660    48.4100 H      7954  TIP7804     0.2052
 42775 OH2          8.0090    16.0570    29.6190 O.3    7955  TIP7805    -0.4105
 42776 H1           8.1920    15.2980    29.0660 H      7955  TIP7805     0.2052
 42777 H2           7.1080    16.2990    29.4040 H      7955  TIP7805     0.2052
 42778 OH2        -12.3110     1.3940    42.8330 O.3    7956  TIP7806    -0.4105
 42779 H1         -12.2720     1.8940    43.6480 H      7956  TIP7806     0.2052
 42780 H2         -11.6340     0.7240    42.9300 H      7956  TIP7806     0.2052
 42781 OH2         -2.0740     1.0410    30.2500 O.3    7957  TIP7807    -0.4105
 42782 H1          -1.8980     1.5400    31.0480 H      7957  TIP7807     0.2052
 42783 H2          -2.6970     0.3670    30.5210 H      7957  TIP7807     0.2052
 42784 OH2          7.7090    14.9730   -46.6860 O.3    7958  TIP7808    -0.4105
 42785 H1           7.5880    14.0250   -46.6250 H      7958  TIP7808     0.2052
 42786 H2           6.8460    15.3100   -46.9280 H      7958  TIP7808     0.2052
 42787 OH2          9.6840    15.4160    25.9870 O.3    7959  TIP7809    -0.4105
 42788 H1           9.9990    16.2880    25.7480 H      7959  TIP7809     0.2052
 42789 H2           9.9840    14.8490    25.2770 H      7959  TIP7809     0.2052
 42790 OH2         30.7540    10.5860    49.0890 O.3    7960  TIP7810    -0.4105
 42791 H1          30.7500    11.3970    49.5970 H      7960  TIP7810     0.2052
 42792 H2          30.7700    10.8740    48.1770 H      7960  TIP7810     0.2052
 42793 OH2        -22.9460     4.0890    32.4700 O.3    7961  TIP7811    -0.4105
 42794 H1         -23.6930     3.7340    32.9530 H      7961  TIP7811     0.2052
 42795 H2         -22.8590     4.9870    32.7910 H      7961  TIP7811     0.2052
 42796 OH2         24.2510    -8.4090   -25.1730 O.3    7962  TIP7812    -0.4105
 42797 H1          24.1600    -8.0100   -24.3070 H      7962  TIP7812     0.2052
 42798 H2          23.4640    -8.9450   -25.2740 H      7962  TIP7812     0.2052
 42799 OH2        -28.9790    31.1940   -52.3630 O.3    7963  TIP7813    -0.4105
 42800 H1         -28.4770    31.2060   -51.5480 H      7963  TIP7813     0.2052
 42801 H2         -29.7710    30.7010   -52.1490 H      7963  TIP7813     0.2052
 42802 OH2         23.8570    16.0120    23.9530 O.3    7964  TIP7814    -0.4105
 42803 H1          24.3960    16.2790    23.2080 H      7964  TIP7814     0.2052
 42804 H2          24.0330    16.6700    24.6250 H      7964  TIP7814     0.2052
 42805 OH2         29.5380   -19.0450   -39.7670 O.3    7965  TIP7815    -0.4105
 42806 H1          30.1560   -19.2840   -39.0770 H      7965  TIP7815     0.2052
 42807 H2          29.3230   -19.8730   -40.1960 H      7965  TIP7815     0.2052
 42808 OH2          4.2660    -3.2370   -27.4510 O.3    7966  TIP7816    -0.4105
 42809 H1           4.3130    -2.2990   -27.6400 H      7966  TIP7816     0.2052
 42810 H2           3.4720    -3.3360   -26.9260 H      7966  TIP7816     0.2052
 42811 OH2         19.9090    30.8540   -28.0880 O.3    7967  TIP7817    -0.4105
 42812 H1          20.2290    31.7230   -27.8460 H      7967  TIP7817     0.2052
 42813 H2          20.6830    30.2920   -28.0450 H      7967  TIP7817     0.2052
 42814 OH2         -5.4920    -5.0680    43.4910 O.3    7968  TIP7818    -0.4105
 42815 H1          -5.3130    -5.7600    42.8550 H      7968  TIP7818     0.2052
 42816 H2          -4.6950    -4.5380    43.5010 H      7968  TIP7818     0.2052
 42817 OH2        -14.1570    32.4330    43.1860 O.3    7969  TIP7819    -0.4105
 42818 H1         -13.4120    32.9570    43.4800 H      7969  TIP7819     0.2052
 42819 H2         -13.9040    32.1230    42.3160 H      7969  TIP7819     0.2052
 42820 OH2        -20.0080    22.6650    36.5320 O.3    7970  TIP7820    -0.4105
 42821 H1         -19.3690    21.9600    36.4230 H      7970  TIP7820     0.2052
 42822 H2         -20.7140    22.2710    37.0450 H      7970  TIP7820     0.2052
 42823 OH2        -17.5250     4.2310    44.5550 O.3    7971  TIP7821    -0.4105
 42824 H1         -17.9380     3.4280    44.2390 H      7971  TIP7821     0.2052
 42825 H2         -16.6420     4.2090    44.1840 H      7971  TIP7821     0.2052
 42826 OH2        -17.4290   -19.0540    33.1470 O.3    7972  TIP7822    -0.4105
 42827 H1         -17.0490   -19.3830    33.9620 H      7972  TIP7822     0.2052
 42828 H2         -16.7170   -18.5690    32.7280 H      7972  TIP7822     0.2052
 42829 OH2         -0.5640    30.4210    32.5570 O.3    7973  TIP7823    -0.4105
 42830 H1           0.2460    30.9080    32.4070 H      7973  TIP7823     0.2052
 42831 H2          -0.5540    30.2220    33.4940 H      7973  TIP7823     0.2052
 42832 OH2          4.3220   -25.0650   -34.9080 O.3    7974  TIP7824    -0.4105
 42833 H1           5.2610   -25.0800   -34.7200 H      7974  TIP7824     0.2052
 42834 H2           4.2590   -24.6840   -35.7840 H      7974  TIP7824     0.2052
 42835 OH2        -25.4350   -27.6830    45.2790 O.3    7975  TIP7825    -0.4105
 42836 H1         -25.9650   -27.5090    46.0570 H      7975  TIP7825     0.2052
 42837 H2         -26.0740   -27.8500    44.5860 H      7975  TIP7825     0.2052
 42838 OH2         27.5910     9.6810    51.8700 O.3    7976  TIP7826    -0.4105
 42839 H1          27.2410    10.5420    51.6420 H      7976  TIP7826     0.2052
 42840 H2          27.0380     9.0630    51.3920 H      7976  TIP7826     0.2052
 42841 OH2         11.0080    17.5370   -47.0270 O.3    7977  TIP7827    -0.4105
 42842 H1          10.9700    17.9170   -47.9050 H      7977  TIP7827     0.2052
 42843 H2          10.5720    16.6900   -47.1140 H      7977  TIP7827     0.2052
 42844 OH2         19.3360    30.2560    36.5340 O.3    7978  TIP7828    -0.4105
 42845 H1          19.8000    29.4300    36.6690 H      7978  TIP7828     0.2052
 42846 H2          18.9970    30.4860    37.3990 H      7978  TIP7828     0.2052
 42847 OH2        -23.1610    12.1200   -29.9110 O.3    7979  TIP7829    -0.4105
 42848 H1         -23.0550    11.2010   -29.6630 H      7979  TIP7829     0.2052
 42849 H2         -24.0810    12.3120   -29.7310 H      7979  TIP7829     0.2052
 42850 OH2         29.2020   -30.3610   -28.8220 O.3    7980  TIP7830    -0.4105
 42851 H1          30.1490   -30.3930   -28.9570 H      7980  TIP7830     0.2052
 42852 H2          29.1000   -30.1190   -27.9010 H      7980  TIP7830     0.2052
 42853 OH2         27.6860    18.2680   -31.1890 O.3    7981  TIP7831    -0.4105
 42854 H1          28.0510    18.5880   -32.0140 H      7981  TIP7831     0.2052
 42855 H2          26.9720    17.6870   -31.4520 H      7981  TIP7831     0.2052
 42856 OH2         31.3160    23.1660    24.0390 O.3    7982  TIP7832    -0.4105
 42857 H1          32.1210    22.8730    23.6130 H      7982  TIP7832     0.2052
 42858 H2          31.1950    24.0650    23.7310 H      7982  TIP7832     0.2052
 42859 OH2         14.2910     4.5880    37.2350 O.3    7983  TIP7833    -0.4105
 42860 H1          15.1850     4.8840    37.0630 H      7983  TIP7833     0.2052
 42861 H2          14.0740     4.9640    38.0880 H      7983  TIP7833     0.2052
 42862 OH2         -6.8200    12.1790   -19.5470 O.3    7984  TIP7834    -0.4105
 42863 H1          -6.3350    12.4690   -18.7740 H      7984  TIP7834     0.2052
 42864 H2          -7.5030    12.8380   -19.6640 H      7984  TIP7834     0.2052
 42865 OH2         -5.7000    13.8950    38.9000 O.3    7985  TIP7835    -0.4105
 42866 H1          -6.3230    14.5040    38.5020 H      7985  TIP7835     0.2052
 42867 H2          -5.0560    14.4580    39.3300 H      7985  TIP7835     0.2052
 42868 OH2         22.5540   -18.5200    35.6450 O.3    7986  TIP7836    -0.4105
 42869 H1          22.5230   -18.4810    34.6890 H      7986  TIP7836     0.2052
 42870 H2          21.7660   -18.0570    35.9290 H      7986  TIP7836     0.2052
 42871 OH2         10.3460    14.1460   -27.7430 O.3    7987  TIP7837    -0.4105
 42872 H1          11.1210    13.9550   -28.2710 H      7987  TIP7837     0.2052
 42873 H2          10.0190    14.9760   -28.0870 H      7987  TIP7837     0.2052
 42874 OH2         -1.4360   -29.2850    16.0680 O.3    7988  TIP7838    -0.4105
 42875 H1          -0.7970   -28.7140    15.6430 H      7988  TIP7838     0.2052
 42876 H2          -1.8400   -28.7350    16.7390 H      7988  TIP7838     0.2052
 42877 OH2         -7.3680   -17.4070    21.6790 O.3    7989  TIP7839    -0.4105
 42878 H1          -6.9470   -16.6210    22.0260 H      7989  TIP7839     0.2052
 42879 H2          -6.8810   -17.6070    20.8790 H      7989  TIP7839     0.2052
 42880 OH2         22.6190    31.7140    31.0730 O.3    7990  TIP7840    -0.4105
 42881 H1          21.9730    31.0180    30.9490 H      7990  TIP7840     0.2052
 42882 H2          22.5670    32.2350    30.2720 H      7990  TIP7840     0.2052
 42883 OH2         19.3120    19.5100    51.4650 O.3    7991  TIP7841    -0.4105
 42884 H1          19.9260    20.0720    50.9930 H      7991  TIP7841     0.2052
 42885 H2          19.3470    19.8210    52.3700 H      7991  TIP7841     0.2052
 42886 OH2         -6.3820   -22.3590    24.6710 O.3    7992  TIP7842    -0.4105
 42887 H1          -6.3540   -21.7570    23.9280 H      7992  TIP7842     0.2052
 42888 H2          -6.9170   -23.0920    24.3660 H      7992  TIP7842     0.2052
 42889 OH2         -0.8020     2.9550   -46.8800 O.3    7993  TIP7843    -0.4105
 42890 H1          -0.8060     3.4090   -46.0380 H      7993  TIP7843     0.2052
 42891 H2          -1.2130     2.1090   -46.6990 H      7993  TIP7843     0.2052
 42892 OH2        -26.8230    25.2170   -33.7760 O.3    7994  TIP7844    -0.4105
 42893 H1         -25.9030    25.4420   -33.6350 H      7994  TIP7844     0.2052
 42894 H2         -26.7990    24.3490   -34.1790 H      7994  TIP7844     0.2052
 42895 OH2        -16.1060     7.9980   -32.7300 O.3    7995  TIP7845    -0.4105
 42896 H1         -16.7170     8.6780   -33.0150 H      7995  TIP7845     0.2052
 42897 H2         -15.5460     7.8450   -33.4900 H      7995  TIP7845     0.2052
 42898 OH2          7.6260     2.0600    29.2100 O.3    7996  TIP7846    -0.4105
 42899 H1           6.7740     2.2860    29.5830 H      7996  TIP7846     0.2052
 42900 H2           8.2160     2.0250    29.9630 H      7996  TIP7846     0.2052
 42901 OH2         16.2140    31.4550   -41.5980 O.3    7997  TIP7847    -0.4105
 42902 H1          15.4770    30.8570   -41.4730 H      7997  TIP7847     0.2052
 42903 H2          16.4600    31.3440   -42.5160 H      7997  TIP7847     0.2052
 42904 OH2         -0.2850    27.8380   -50.9750 O.3    7998  TIP7848    -0.4105
 42905 H1          -0.1470    28.6680   -51.4300 H      7998  TIP7848     0.2052
 42906 H2          -0.9420    27.3810   -51.5010 H      7998  TIP7848     0.2052
 42907 OH2        -13.5380    -2.4910   -48.7220 O.3    7999  TIP7849    -0.4105
 42908 H1         -14.3750    -2.1050   -48.9780 H      7999  TIP7849     0.2052
 42909 H2         -13.0580    -1.7730   -48.3100 H      7999  TIP7849     0.2052
 42910 OH2         -5.6160   -10.0070   -25.1140 O.3    8000  TIP7850    -0.4105
 42911 H1          -6.1870   -10.4720   -24.5030 H      8000  TIP7850     0.2052
 42912 H2          -5.2480   -10.6940   -25.6690 H      8000  TIP7850     0.2052
 42913 OH2         14.3510   -13.4300   -28.3340 O.3    8001  TIP7851    -0.4105
 42914 H1          14.7740   -13.3530   -29.1890 H      8001  TIP7851     0.2052
 42915 H2          13.9070   -12.5920   -28.2090 H      8001  TIP7851     0.2052
 42916 OH2         14.4450   -17.1890   -17.8340 O.3    8002  TIP7852    -0.4105
 42917 H1          14.8950   -16.8050   -17.0810 H      8002  TIP7852     0.2052
 42918 H2          13.9230   -16.4710   -18.1930 H      8002  TIP7852     0.2052
 42919 OH2         -8.7180    -8.3770   -30.9510 O.3    8003  TIP7853    -0.4105
 42920 H1          -8.9350    -7.4510   -31.0550 H      8003  TIP7853     0.2052
 42921 H2          -8.4690    -8.6650   -31.8300 H      8003  TIP7853     0.2052
 42922 OH2          7.8190   -32.3370   -44.1170 O.3    8004  TIP7854    -0.4105
 42923 H1           7.2520   -32.0790   -44.8440 H      8004  TIP7854     0.2052
 42924 H2           7.3460   -33.0470   -43.6830 H      8004  TIP7854     0.2052
 42925 OH2         15.4260   -11.9270    42.7140 O.3    8005  TIP7855    -0.4105
 42926 H1          15.9140   -11.8780    41.8910 H      8005  TIP7855     0.2052
 42927 H2          15.4570   -11.0370    43.0650 H      8005  TIP7855     0.2052
 42928 OH2         -7.0930    19.1460    51.2730 O.3    8006  TIP7856    -0.4105
 42929 H1          -7.1850    18.5160    50.5590 H      8006  TIP7856     0.2052
 42930 H2          -7.7760    18.9020    51.8980 H      8006  TIP7856     0.2052
 42931 OH2          3.7980    13.3690    38.9240 O.3    8007  TIP7857    -0.4105
 42932 H1           4.2900    12.9980    38.1910 H      8007  TIP7857     0.2052
 42933 H2           4.4620    13.7940    39.4670 H      8007  TIP7857     0.2052
 42934 OH2        -22.0840   -15.7730   -37.1520 O.3    8008  TIP7858    -0.4105
 42935 H1         -22.6840   -15.0320   -37.2320 H      8008  TIP7858     0.2052
 42936 H2         -21.3010   -15.5010   -37.6300 H      8008  TIP7858     0.2052
 42937 OH2        -23.5860   -30.4910    51.3520 O.3    8009  TIP7859    -0.4105
 42938 H1         -24.2600   -31.1570    51.2130 H      8009  TIP7859     0.2052
 42939 H2         -23.1170   -30.7860    52.1330 H      8009  TIP7859     0.2052
 42940 OH2          8.1520    12.2810   -18.1070 O.3    8010  TIP7860    -0.4105
 42941 H1           8.3020    13.0340   -17.5360 H      8010  TIP7860     0.2052
 42942 H2           7.7570    12.6520   -18.8960 H      8010  TIP7860     0.2052
 42943 OH2          4.7900   -30.2740    38.2310 O.3    8011  TIP7861    -0.4105
 42944 H1           5.6670   -30.3960    37.8680 H      8011  TIP7861     0.2052
 42945 H2           4.9070   -29.6360    38.9350 H      8011  TIP7861     0.2052
 42946 OH2          4.2130   -22.1650   -55.3880 O.3    8012  TIP7862    -0.4105
 42947 H1           3.8940   -23.0530   -55.2280 H      8012  TIP7862     0.2052
 42948 H2           3.4190   -21.6420   -55.5030 H      8012  TIP7862     0.2052
 42949 OH2         10.8080    11.8120   -26.0360 O.3    8013  TIP7863    -0.4105
 42950 H1          10.6610    12.5920   -26.5700 H      8013  TIP7863     0.2052
 42951 H2          10.5130    11.0860   -26.5850 H      8013  TIP7863     0.2052
 42952 OH2        -33.0110    -8.2850   -16.5980 O.3    8014  TIP7864    -0.4105
 42953 H1         -33.1860    -8.7280   -15.7680 H      8014  TIP7864     0.2052
 42954 H2         -32.1070    -8.5180   -16.8090 H      8014  TIP7864     0.2052
 42955 OH2        -29.9960   -24.7230   -33.9710 O.3    8015  TIP7865    -0.4105
 42956 H1         -29.9560   -24.6650   -33.0160 H      8015  TIP7865     0.2052
 42957 H2         -30.9020   -24.5050   -34.1870 H      8015  TIP7865     0.2052
 42958 OH2         -0.9070    -9.8200   -28.8620 O.3    8016  TIP7866    -0.4105
 42959 H1          -1.7820    -9.4550   -28.9930 H      8016  TIP7866     0.2052
 42960 H2          -0.7500    -9.7360   -27.9220 H      8016  TIP7866     0.2052
 42961 OH2         14.9790    10.8910   -52.5560 O.3    8017  TIP7867    -0.4105
 42962 H1          15.9020    10.6870   -52.7050 H      8017  TIP7867     0.2052
 42963 H2          14.9400    11.8480   -52.5680 H      8017  TIP7867     0.2052
 42964 OH2          0.1820     5.6850    47.7180 O.3    8018  TIP7868    -0.4105
 42965 H1           0.9300     6.0820    48.1640 H      8018  TIP7868     0.2052
 42966 H2           0.3870     4.7510    47.6900 H      8018  TIP7868     0.2052
 42967 OH2          3.8160    30.7240   -43.2000 O.3    8019  TIP7869    -0.4105
 42968 H1           3.0900    31.2000   -42.7970 H      8019  TIP7869     0.2052
 42969 H2           3.5870    30.6760   -44.1280 H      8019  TIP7869     0.2052
 42970 OH2        -12.0330    29.7160   -31.5210 O.3    8020  TIP7870    -0.4105
 42971 H1         -11.2340    29.3260   -31.8760 H      8020  TIP7870     0.2052
 42972 H2         -12.7030    29.0440   -31.6430 H      8020  TIP7870     0.2052
 42973 OH2         -7.6280    -0.2570   -24.6690 O.3    8021  TIP7871    -0.4105
 42974 H1          -6.8940    -0.6820   -24.2260 H      8021  TIP7871     0.2052
 42975 H2          -7.4250    -0.3380   -25.6010 H      8021  TIP7871     0.2052
 42976 OH2         31.6580    14.4360   -39.3130 O.3    8022  TIP7872    -0.4105
 42977 H1          31.1900    13.6010   -39.3020 H      8022  TIP7872     0.2052
 42978 H2          31.0780    15.0430   -38.8530 H      8022  TIP7872     0.2052
 42979 OH2        -17.5760    19.8080   -39.5440 O.3    8023  TIP7873    -0.4105
 42980 H1         -17.4880    19.0090   -40.0620 H      8023  TIP7873     0.2052
 42981 H2         -17.5630    20.5150   -40.1890 H      8023  TIP7873     0.2052
 42982 OH2         22.3090   -28.0220   -52.5490 O.3    8024  TIP7874    -0.4105
 42983 H1          22.0980   -27.3080   -53.1520 H      8024  TIP7874     0.2052
 42984 H2          22.1480   -27.6560   -51.6790 H      8024  TIP7874     0.2052
 42985 OH2         16.2460   -23.9470   -30.9810 O.3    8025  TIP7875    -0.4105
 42986 H1          15.8670   -23.0700   -30.9410 H      8025  TIP7875     0.2052
 42987 H2          15.8260   -24.3560   -31.7380 H      8025  TIP7875     0.2052
 42988 OH2         -5.6860    24.1160   -24.9890 O.3    8026  TIP7876    -0.4105
 42989 H1          -5.2150    23.2950   -25.1360 H      8026  TIP7876     0.2052
 42990 H2          -6.5500    23.9690   -25.3740 H      8026  TIP7876     0.2052
 42991 OH2         14.4140     3.8580   -47.4340 O.3    8027  TIP7877    -0.4105
 42992 H1          15.1750     4.4010   -47.2280 H      8027  TIP7877     0.2052
 42993 H2          14.0590     3.6090   -46.5810 H      8027  TIP7877     0.2052
 42994 OH2         16.4880    20.6800    53.7100 O.3    8028  TIP7878    -0.4105
 42995 H1          17.3160    20.6170    54.1860 H      8028  TIP7878     0.2052
 42996 H2          16.0460    19.8490    53.8860 H      8028  TIP7878     0.2052
 42997 OH2         10.9570    12.1700   -46.5950 O.3    8029  TIP7879    -0.4105
 42998 H1          11.1470    11.4230   -46.0270 H      8029  TIP7879     0.2052
 42999 H2          10.8660    11.7910   -47.4690 H      8029  TIP7879     0.2052
 43000 OH2         16.7870    22.3820    30.2230 O.3    8030  TIP7880    -0.4105
 43001 H1          16.1690    21.9710    29.6190 H      8030  TIP7880     0.2052
 43002 H2          17.6490    22.1370    29.8870 H      8030  TIP7880     0.2052
 43003 OH2        -16.9060     5.0120   -44.1530 O.3    8031  TIP7881    -0.4105
 43004 H1         -17.0520     5.7850   -43.6080 H      8031  TIP7881     0.2052
 43005 H2         -17.6250     4.4220   -43.9300 H      8031  TIP7881     0.2052
 43006 OH2         -6.4120   -19.3060   -53.2860 O.3    8032  TIP7882    -0.4105
 43007 H1          -6.9060   -19.9170   -53.8330 H      8032  TIP7882     0.2052
 43008 H2          -6.8130   -19.3790   -52.4210 H      8032  TIP7882     0.2052
 43009 OH2         16.9860    27.0820   -23.7110 O.3    8033  TIP7883    -0.4105
 43010 H1          16.3880    27.8120   -23.5510 H      8033  TIP7883     0.2052
 43011 H2          16.4570    26.3000   -23.5540 H      8033  TIP7883     0.2052
 43012 OH2         -1.4910    22.6360    24.0690 O.3    8034  TIP7884    -0.4105
 43013 H1          -1.8440    23.4370    23.6840 H      8034  TIP7884     0.2052
 43014 H2          -1.3830    22.0400    23.3270 H      8034  TIP7884     0.2052
 43015 OH2         11.9710     6.1230    32.9430 O.3    8035  TIP7885    -0.4105
 43016 H1          11.6180     7.0090    32.8510 H      8035  TIP7885     0.2052
 43017 H2          11.8570     5.9150    33.8700 H      8035  TIP7885     0.2052
 43018 OH2         12.5530    -8.9540    49.9010 O.3    8036  TIP7886    -0.4105
 43019 H1          13.3300    -8.8410    49.3530 H      8036  TIP7886     0.2052
 43020 H2          12.8990    -9.1890    50.7620 H      8036  TIP7886     0.2052
 43021 OH2          3.7420    -5.2620   -39.4110 O.3    8037  TIP7887    -0.4105
 43022 H1           3.0380    -5.4030   -40.0450 H      8037  TIP7887     0.2052
 43023 H2           3.9290    -6.1330   -39.0620 H      8037  TIP7887     0.2052
 43024 OH2        -11.5710    -3.6930   -32.3390 O.3    8038  TIP7888    -0.4105
 43025 H1         -11.8680    -4.5280   -32.7020 H      8038  TIP7888     0.2052
 43026 H2         -12.1000    -3.0340   -32.7890 H      8038  TIP7888     0.2052
 43027 OH2          6.9710     2.2970   -38.9130 O.3    8039  TIP7889    -0.4105
 43028 H1           7.0420     1.6020   -39.5670 H      8039  TIP7889     0.2052
 43029 H2           6.5010     3.0010   -39.3610 H      8039  TIP7889     0.2052
 43030 OH2        -30.4710   -17.0330   -34.4330 O.3    8040  TIP7890    -0.4105
 43031 H1         -29.9600   -17.3480   -33.6870 H      8040  TIP7890     0.2052
 43032 H2         -29.8580   -16.4950   -34.9340 H      8040  TIP7890     0.2052
 43033 OH2        -18.9040   -25.1100    35.8990 O.3    8041  TIP7891    -0.4105
 43034 H1         -19.7280   -24.6280    35.9660 H      8041  TIP7891     0.2052
 43035 H2         -18.3340   -24.7030    36.5510 H      8041  TIP7891     0.2052
 43036 OH2        -26.3870   -32.2480    46.0830 O.3    8042  TIP7892    -0.4105
 43037 H1         -26.8350   -31.4040    46.0280 H      8042  TIP7892     0.2052
 43038 H2         -25.5650   -32.1140    45.6100 H      8042  TIP7892     0.2052
 43039 OH2         11.8080    18.0340   -34.3880 O.3    8043  TIP7893    -0.4105
 43040 H1          11.4840    18.8740   -34.0620 H      8043  TIP7893     0.2052
 43041 H2          11.9420    18.1750   -35.3250 H      8043  TIP7893     0.2052
 43042 OH2         -3.5460    -9.4120   -15.5140 O.3    8044  TIP7894    -0.4105
 43043 H1          -2.9720    -8.6710   -15.7080 H      8044  TIP7894     0.2052
 43044 H2          -3.5840    -9.4420   -14.5580 H      8044  TIP7894     0.2052
 43045 OH2        -31.8510    -7.6880   -40.1560 O.3    8045  TIP7895    -0.4105
 43046 H1         -30.9110    -7.8700   -40.1660 H      8045  TIP7895     0.2052
 43047 H2         -31.9090    -6.7320   -40.1640 H      8045  TIP7895     0.2052
 43048 OH2         16.4660    -7.2230   -52.9470 O.3    8046  TIP7896    -0.4105
 43049 H1          16.2920    -8.1630   -53.0070 H      8046  TIP7896     0.2052
 43050 H2          15.9070    -6.8330   -53.6180 H      8046  TIP7896     0.2052
 43051 OH2         26.3060    -4.0380   -17.0280 O.3    8047  TIP7897    -0.4105
 43052 H1          26.1450    -3.3270   -16.4080 H      8047  TIP7897     0.2052
 43053 H2          25.8720    -3.7570   -17.8330 H      8047  TIP7897     0.2052
 43054 OH2          3.6920   -19.0020    34.6100 O.3    8048  TIP7898    -0.4105
 43055 H1           4.4660   -18.8540    35.1540 H      8048  TIP7898     0.2052
 43056 H2           3.7540   -18.3420    33.9200 H      8048  TIP7898     0.2052
 43057 OH2          1.0310    -0.0040    42.3310 O.3    8049  TIP7899    -0.4105
 43058 H1           1.3670    -0.4500    43.1080 H      8049  TIP7899     0.2052
 43059 H2           0.1200     0.1970    42.5440 H      8049  TIP7899     0.2052
 43060 OH2        -14.8970   -16.7230    26.7420 O.3    8050  TIP7900    -0.4105
 43061 H1         -14.9530   -16.8690    25.7980 H      8050  TIP7900     0.2052
 43062 H2         -14.5070   -15.8530    26.8270 H      8050  TIP7900     0.2052
 43063 OH2          2.2790     3.7550   -51.1070 O.3    8051  TIP7901    -0.4105
 43064 H1           2.9690     4.3780   -51.3360 H      8051  TIP7901     0.2052
 43065 H2           2.3630     3.6410   -50.1600 H      8051  TIP7901     0.2052
 43066 OH2         12.7980    20.1660    26.6570 O.3    8052  TIP7902    -0.4105
 43067 H1          12.9320    19.3550    27.1480 H      8052  TIP7902     0.2052
 43068 H2          13.6050    20.2770    26.1540 H      8052  TIP7902     0.2052
 43069 OH2         25.5240     3.2290    41.5220 O.3    8053  TIP7903    -0.4105
 43070 H1          24.9720     3.2610    42.3040 H      8053  TIP7903     0.2052
 43071 H2          24.9110     3.3210    40.7930 H      8053  TIP7903     0.2052
 43072 OH2          0.4940    -7.6820   -17.4240 O.3    8054  TIP7904    -0.4105
 43073 H1           0.2310    -8.5890   -17.5800 H      8054  TIP7904     0.2052
 43074 H2           1.2800    -7.7500   -16.8830 H      8054  TIP7904     0.2052
 43075 OH2         -2.1520     5.6650    45.0910 O.3    8055  TIP7905    -0.4105
 43076 H1          -2.1310     6.5020    45.5550 H      8055  TIP7905     0.2052
 43077 H2          -2.7660     5.1290    45.5920 H      8055  TIP7905     0.2052
 43078 OH2         32.7340    16.4170   -43.7470 O.3    8056  TIP7906    -0.4105
 43079 H1          32.9760    17.3420   -43.7130 H      8056  TIP7906     0.2052
 43080 H2          33.3800    16.0210   -44.3320 H      8056  TIP7906     0.2052
 43081 OH2        -31.1140    30.5190   -36.2970 O.3    8057  TIP7907    -0.4105
 43082 H1         -31.3810    31.4270   -36.4420 H      8057  TIP7907     0.2052
 43083 H2         -30.2080    30.4840   -36.6020 H      8057  TIP7907     0.2052
 43084 OH2        -15.7700    -0.1080    29.4850 O.3    8058  TIP7908    -0.4105
 43085 H1         -16.5790     0.4040    29.5030 H      8058  TIP7908     0.2052
 43086 H2         -15.8130    -0.5950    28.6620 H      8058  TIP7908     0.2052
 43087 OH2        -13.9930     3.3500   -33.4650 O.3    8059  TIP7909    -0.4105
 43088 H1         -13.3340     3.6880   -32.8580 H      8059  TIP7909     0.2052
 43089 H2         -13.7610     3.7350   -34.3100 H      8059  TIP7909     0.2052
 43090 OH2        -12.0840   -32.7960    46.5800 O.3    8060  TIP7910    -0.4105
 43091 H1         -11.8400   -33.4770    47.2060 H      8060  TIP7910     0.2052
 43092 H2         -12.9970   -32.9860    46.3620 H      8060  TIP7910     0.2052
 43093 OH2         -6.8010    11.6980    40.1790 O.3    8061  TIP7911    -0.4105
 43094 H1          -6.5680    12.4790    39.6760 H      8061  TIP7911     0.2052
 43095 H2          -6.2180    11.0160    39.8470 H      8061  TIP7911     0.2052
 43096 OH2         17.4700    28.7940   -37.5420 O.3    8062  TIP7912    -0.4105
 43097 H1          17.8000    28.8810   -38.4360 H      8062  TIP7912     0.2052
 43098 H2          17.2210    29.6830   -37.2900 H      8062  TIP7912     0.2052
 43099 OH2         -2.0180     3.2370   -30.4710 O.3    8063  TIP7913    -0.4105
 43100 H1          -1.2990     2.9980   -29.8870 H      8063  TIP7913     0.2052
 43101 H2          -2.5260     2.4310   -30.5690 H      8063  TIP7913     0.2052
 43102 OH2        -28.5900     7.9740   -41.1430 O.3    8064  TIP7914    -0.4105
 43103 H1         -28.9480     7.4760   -40.4080 H      8064  TIP7914     0.2052
 43104 H2         -28.5840     8.8810   -40.8380 H      8064  TIP7914     0.2052
 43105 OH2          0.5170    31.2490    25.2730 O.3    8065  TIP7915    -0.4105
 43106 H1           0.9500    32.1020    25.2490 H      8065  TIP7915     0.2052
 43107 H2           0.2090    31.1100    24.3780 H      8065  TIP7915     0.2052
 43108 OH2          2.7900    16.5360   -40.3710 O.3    8066  TIP7916    -0.4105
 43109 H1           2.1940    16.8680   -39.7000 H      8066  TIP7916     0.2052
 43110 H2           3.2500    15.8110   -39.9470 H      8066  TIP7916     0.2052
 43111 OH2          3.6480    22.9650   -46.4970 O.3    8067  TIP7917    -0.4105
 43112 H1           4.1680    22.3680   -45.9600 H      8067  TIP7917     0.2052
 43113 H2           3.1920    23.5220   -45.8660 H      8067  TIP7917     0.2052
 43114 OH2          6.8500    -7.2910    37.9600 O.3    8068  TIP7918    -0.4105
 43115 H1           6.6020    -7.0970    37.0560 H      8068  TIP7918     0.2052
 43116 H2           6.0710    -7.0770    38.4730 H      8068  TIP7918     0.2052
 43117 OH2        -21.0530    -7.5690   -30.5980 O.3    8069  TIP7919    -0.4105
 43118 H1         -21.9750    -7.8040   -30.4910 H      8069  TIP7919     0.2052
 43119 H2         -20.7120    -8.2130   -31.2190 H      8069  TIP7919     0.2052
 43120 OH2         27.1980   -28.6560   -52.6330 O.3    8070  TIP7920    -0.4105
 43121 H1          27.4850   -28.9270   -51.7610 H      8070  TIP7920     0.2052
 43122 H2          27.9230   -28.8970   -53.2100 H      8070  TIP7920     0.2052
 43123 OH2         21.4760    27.0380   -42.1740 O.3    8071  TIP7921    -0.4105
 43124 H1          21.3870    26.6670   -43.0510 H      8071  TIP7921     0.2052
 43125 H2          22.3780    27.3550   -42.1370 H      8071  TIP7921     0.2052
 43126 OH2          6.2650     1.1990   -22.5200 O.3    8072  TIP7922    -0.4105
 43127 H1           6.9870     1.4060   -23.1140 H      8072  TIP7922     0.2052
 43128 H2           6.0130     2.0430   -22.1450 H      8072  TIP7922     0.2052
 43129 OH2         -0.8000   -10.0040    30.2690 O.3    8073  TIP7923    -0.4105
 43130 H1          -0.3430    -9.2690    29.8600 H      8073  TIP7923     0.2052
 43131 H2          -0.2400   -10.2560    31.0030 H      8073  TIP7923     0.2052
 43132 OH2        -31.4430    26.2900   -34.4230 O.3    8074  TIP7924    -0.4105
 43133 H1         -30.7380    26.4620   -35.0480 H      8074  TIP7924     0.2052
 43134 H2         -31.1950    26.7830   -33.6400 H      8074  TIP7924     0.2052
 43135 OH2         15.3940    12.4820   -43.9710 O.3    8075  TIP7925    -0.4105
 43136 H1          14.7460    12.9430   -44.5040 H      8075  TIP7925     0.2052
 43137 H2          15.8510    11.9120   -44.5890 H      8075  TIP7925     0.2052
 43138 OH2        -31.2040     0.2620   -52.7360 O.3    8076  TIP7926    -0.4105
 43139 H1         -31.6530    -0.1350   -53.4820 H      8076  TIP7926     0.2052
 43140 H2         -30.6590     0.9490   -53.1210 H      8076  TIP7926     0.2052
 43141 OH2          1.6380    32.3340    41.0480 O.3    8077  TIP7927    -0.4105
 43142 H1           1.9740    31.4600    40.8460 H      8077  TIP7927     0.2052
 43143 H2           0.9790    32.4990    40.3740 H      8077  TIP7927     0.2052
 43144 OH2         25.2120    -2.2220    49.9290 O.3    8078  TIP7928    -0.4105
 43145 H1          25.7450    -2.4970    50.6750 H      8078  TIP7928     0.2052
 43146 H2          24.3190    -2.4730    50.1670 H      8078  TIP7928     0.2052
 43147 OH2        -30.3930   -21.3960   -53.4280 O.3    8079  TIP7929    -0.4105
 43148 H1         -29.7860   -20.6560   -53.4430 H      8079  TIP7929     0.2052
 43149 H2         -31.0860   -21.1510   -54.0410 H      8079  TIP7929     0.2052
 43150 OH2        -30.0480    12.6530   -30.9360 O.3    8080  TIP7930    -0.4105
 43151 H1         -29.2620    12.2060   -31.2510 H      8080  TIP7930     0.2052
 43152 H2         -30.6420    12.6530   -31.6870 H      8080  TIP7930     0.2052
 43153 OH2         32.2900    16.5150   -36.6260 O.3    8081  TIP7931    -0.4105
 43154 H1          31.6150    16.8620   -37.2090 H      8081  TIP7931     0.2052
 43155 H2          31.9780    15.6420   -36.3900 H      8081  TIP7931     0.2052
 43156 OH2         13.8000     0.6990    18.3340 O.3    8082  TIP7932    -0.4105
 43157 H1          13.5270     1.5020    17.8900 H      8082  TIP7932     0.2052
 43158 H2          13.9960     0.0870    17.6250 H      8082  TIP7932     0.2052
 43159 OH2         -4.5240    27.5930    37.6360 O.3    8083  TIP7933    -0.4105
 43160 H1          -4.6390    26.7260    38.0250 H      8083  TIP7933     0.2052
 43161 H2          -3.9670    27.4410    36.8720 H      8083  TIP7933     0.2052
 43162 OH2        -10.8090    -0.6540   -40.0310 O.3    8084  TIP7934    -0.4105
 43163 H1         -11.0520    -0.6490   -40.9570 H      8084  TIP7934     0.2052
 43164 H2         -10.4250    -1.5190   -39.8880 H      8084  TIP7934     0.2052
 43165 OH2        -21.0490    19.6940    32.6880 O.3    8085  TIP7935    -0.4105
 43166 H1         -21.4340    19.2120    33.4200 H      8085  TIP7935     0.2052
 43167 H2         -21.1210    20.6140    32.9420 H      8085  TIP7935     0.2052
 43168 OH2        -21.9320    29.0180   -30.5950 O.3    8086  TIP7936    -0.4105
 43169 H1         -22.2930    29.2390   -31.4540 H      8086  TIP7936     0.2052
 43170 H2         -22.4020    28.2250   -30.3350 H      8086  TIP7936     0.2052
 43171 OH2        -22.6740    13.1180   -23.9710 O.3    8087  TIP7937    -0.4105
 43172 H1         -21.9610    12.8030   -23.4150 H      8087  TIP7937     0.2052
 43173 H2         -23.4060    13.2510   -23.3690 H      8087  TIP7937     0.2052
 43174 OH2        -12.2440     6.2210    39.3890 O.3    8088  TIP7938    -0.4105
 43175 H1         -12.4440     5.5740    40.0660 H      8088  TIP7938     0.2052
 43176 H2         -12.1980     5.7130    38.5790 H      8088  TIP7938     0.2052
 43177 OH2         11.1390    25.8830   -32.4080 O.3    8089  TIP7939    -0.4105
 43178 H1          10.9890    26.3290   -33.2420 H      8089  TIP7939     0.2052
 43179 H2          11.1400    26.5850   -31.7570 H      8089  TIP7939     0.2052
 43180 OH2          0.9590    17.3510    27.0500 O.3    8090  TIP7940    -0.4105
 43181 H1           0.3190    17.3230    26.3380 H      8090  TIP7940     0.2052
 43182 H2           1.4890    16.5630    26.9260 H      8090  TIP7940     0.2052
 43183 OH2         28.9070   -31.6040    45.7330 O.3    8091  TIP7941    -0.4105
 43184 H1          28.7460   -31.0730    44.9530 H      8091  TIP7941     0.2052
 43185 H2          28.7710   -31.0030    46.4650 H      8091  TIP7941     0.2052
 43186 OH2         -1.0910   -12.9790    21.1470 O.3    8092  TIP7942    -0.4105
 43187 H1          -0.4780   -13.7140    21.1540 H      8092  TIP7942     0.2052
 43188 H2          -1.6840   -13.1680    20.4190 H      8092  TIP7942     0.2052
 43189 OH2          4.8490    24.9650   -25.0890 O.3    8093  TIP7943    -0.4105
 43190 H1           4.9460    24.8840   -24.1410 H      8093  TIP7943     0.2052
 43191 H2           5.1540    24.1260   -25.4340 H      8093  TIP7943     0.2052
 43192 OH2         24.0110   -21.9380    40.1250 O.3    8094  TIP7944    -0.4105
 43193 H1          23.6080   -21.7930    40.9810 H      8094  TIP7944     0.2052
 43194 H2          23.4770   -21.4240    39.5190 H      8094  TIP7944     0.2052
 43195 OH2         10.3360     8.5630   -29.7950 O.3    8095  TIP7945    -0.4105
 43196 H1          10.8080     8.4100   -28.9760 H      8095  TIP7945     0.2052
 43197 H2           9.4280     8.3370   -29.5940 H      8095  TIP7945     0.2052
 43198 OH2         30.4920   -28.2780    33.2380 O.3    8096  TIP7946    -0.4105
 43199 H1          30.6330   -28.0150    34.1470 H      8096  TIP7946     0.2052
 43200 H2          29.5410   -28.3180    33.1440 H      8096  TIP7946     0.2052
 43201 OH2         -1.5140    -4.1520    33.5110 O.3    8097  TIP7947    -0.4105
 43202 H1          -0.5860    -4.3510    33.3900 H      8097  TIP7947     0.2052
 43203 H2          -1.9420    -5.0080    33.5300 H      8097  TIP7947     0.2052
 43204 OH2         -7.9140   -17.4840    41.7110 O.3    8098  TIP7948    -0.4105
 43205 H1          -7.1670   -16.8860    41.7120 H      8098  TIP7948     0.2052
 43206 H2          -7.7500   -18.0750    42.4460 H      8098  TIP7948     0.2052
 43207 OH2         10.7480    14.4660    23.3400 O.3    8099  TIP7949    -0.4105
 43208 H1          10.6800    15.2340    22.7730 H      8099  TIP7949     0.2052
 43209 H2          10.9740    13.7500    22.7480 H      8099  TIP7949     0.2052
 43210 OH2         -2.0220    26.6290    25.7290 O.3    8100  TIP7950    -0.4105
 43211 H1          -2.3510    26.9790    24.9010 H      8100  TIP7950     0.2052
 43212 H2          -2.5140    25.8190    25.8610 H      8100  TIP7950     0.2052
 43213 OH2          2.6630   -25.0380   -48.4460 O.3    8101  TIP7951    -0.4105
 43214 H1           2.7960   -24.2810   -47.8760 H      8101  TIP7951     0.2052
 43215 H2           3.3680   -25.6420   -48.2120 H      8101  TIP7951     0.2052
 43216 OH2        -27.0400     9.0710   -32.7850 O.3    8102  TIP7952    -0.4105
 43217 H1         -26.4840     9.8510   -32.7950 H      8102  TIP7952     0.2052
 43218 H2         -26.4900     8.3890   -32.4000 H      8102  TIP7952     0.2052
 43219 OH2         23.8160    -6.1200   -54.4360 O.3    8103  TIP7953    -0.4105
 43220 H1          22.8610    -6.0630   -54.4740 H      8103  TIP7953     0.2052
 43221 H2          24.1210    -5.3610   -54.9350 H      8103  TIP7953     0.2052
 43222 OH2          7.1740   -23.8890    53.2800 O.3    8104  TIP7954    -0.4105
 43223 H1           6.6150   -23.8150    54.0540 H      8104  TIP7954     0.2052
 43224 H2           7.4620   -22.9930    53.1060 H      8104  TIP7954     0.2052
 43225 OH2          9.9520    -7.5990    30.2850 O.3    8105  TIP7955    -0.4105
 43226 H1          10.6290    -7.1420    30.7850 H      8105  TIP7955     0.2052
 43227 H2          10.4370    -8.1890    29.7080 H      8105  TIP7955     0.2052
 43228 OH2         28.2360    -4.0520    31.7520 O.3    8106  TIP7956    -0.4105
 43229 H1          28.8720    -4.7570    31.8710 H      8106  TIP7956     0.2052
 43230 H2          28.7560    -3.3090    31.4450 H      8106  TIP7956     0.2052
 43231 OH2        -19.1410    -3.6410    31.6110 O.3    8107  TIP7957    -0.4105
 43232 H1         -19.7830    -4.3450    31.5190 H      8107  TIP7957     0.2052
 43233 H2         -19.0270    -3.5430    32.5560 H      8107  TIP7957     0.2052
 43234 OH2        -22.1920    29.2560   -49.8160 O.3    8108  TIP7958    -0.4105
 43235 H1         -22.2950    29.8500   -49.0720 H      8108  TIP7958     0.2052
 43236 H2         -22.8070    28.5430   -49.6410 H      8108  TIP7958     0.2052
 43237 OH2          7.0340    26.7690   -54.2100 O.3    8109  TIP7959    -0.4105
 43238 H1           7.8560    26.4520   -54.5830 H      8109  TIP7959     0.2052
 43239 H2           7.2730    27.5720   -53.7480 H      8109  TIP7959     0.2052
 43240 OH2         -6.7010    14.6530   -16.1750 O.3    8110  TIP7960    -0.4105
 43241 H1          -7.6020    14.3430   -16.0860 H      8110  TIP7960     0.2052
 43242 H2          -6.6860    15.4840   -15.7010 H      8110  TIP7960     0.2052
 43243 OH2         16.3160    20.0320   -36.1860 O.3    8111  TIP7961    -0.4105
 43244 H1          17.0820    19.9230   -35.6220 H      8111  TIP7961     0.2052
 43245 H2          16.0150    19.1390   -36.3560 H      8111  TIP7961     0.2052
 43246 OH2          5.7730     7.0090    29.0980 O.3    8112  TIP7962    -0.4105
 43247 H1           5.7090     6.0550    29.0370 H      8112  TIP7962     0.2052
 43248 H2           4.8800     7.3200    28.9510 H      8112  TIP7962     0.2052
 43249 OH2         28.7910     4.3020   -30.8630 O.3    8113  TIP7963    -0.4105
 43250 H1          29.2200     3.8610   -31.5960 H      8113  TIP7963     0.2052
 43251 H2          29.4640     4.3500   -30.1850 H      8113  TIP7963     0.2052
 43252 OH2        -10.1840   -15.8490   -23.5300 O.3    8114  TIP7964    -0.4105
 43253 H1         -10.1740   -16.8000   -23.4210 H      8114  TIP7964     0.2052
 43254 H2          -9.3730   -15.5510   -23.1200 H      8114  TIP7964     0.2052
 43255 OH2        -31.1980   -30.6870   -39.9430 O.3    8115  TIP7965    -0.4105
 43256 H1         -31.5590   -30.0210   -39.3580 H      8115  TIP7965     0.2052
 43257 H2         -31.1410   -30.2540   -40.7950 H      8115  TIP7965     0.2052
 43258 OH2         14.0700    29.9500   -29.2230 O.3    8116  TIP7966    -0.4105
 43259 H1          13.8970    30.0450   -28.2860 H      8116  TIP7966     0.2052
 43260 H2          15.0240    29.9810   -29.2940 H      8116  TIP7966     0.2052
 43261 OH2         24.7330    25.9640    39.4600 O.3    8117  TIP7967    -0.4105
 43262 H1          24.4930    25.4440    38.6930 H      8117  TIP7967     0.2052
 43263 H2          24.3230    26.8150    39.3100 H      8117  TIP7967     0.2052
 43264 OH2        -22.5960   -22.9280   -47.8200 O.3    8118  TIP7968    -0.4105
 43265 H1         -22.8840   -22.2200   -48.3960 H      8118  TIP7968     0.2052
 43266 H2         -23.4040   -23.2720   -47.4400 H      8118  TIP7968     0.2052
 43267 OH2        -11.0950   -26.2480   -53.8060 O.3    8119  TIP7969    -0.4105
 43268 H1         -10.2670   -26.6660   -54.0420 H      8119  TIP7969     0.2052
 43269 H2         -10.8550   -25.3490   -53.5820 H      8119  TIP7969     0.2052
 43270 OH2        -23.3100    13.7440   -42.1110 O.3    8120  TIP7970    -0.4105
 43271 H1         -23.8960    14.4750   -41.9160 H      8120  TIP7970     0.2052
 43272 H2         -22.5450    14.1520   -42.5170 H      8120  TIP7970     0.2052
 43273 OH2        -23.0660    22.6910   -31.7920 O.3    8121  TIP7971    -0.4105
 43274 H1         -22.2750    23.2300   -31.7900 H      8121  TIP7971     0.2052
 43275 H2         -22.9010    22.0210   -31.1280 H      8121  TIP7971     0.2052
 43276 OH2        -17.0460    -3.2650    36.4270 O.3    8122  TIP7972    -0.4105
 43277 H1         -17.6150    -2.5380    36.1710 H      8122  TIP7972     0.2052
 43278 H2         -16.2450    -3.1320    35.9200 H      8122  TIP7972     0.2052
 43279 OH2          2.7600    -5.2430    51.2150 O.3    8123  TIP7973    -0.4105
 43280 H1           2.1140    -5.3780    50.5220 H      8123  TIP7973     0.2052
 43281 H2           3.3410    -4.5630    50.8730 H      8123  TIP7973     0.2052
 43282 OH2         -9.6310    -6.2330   -53.3340 O.3    8124  TIP7974    -0.4105
 43283 H1          -9.4400    -7.1710   -53.3060 H      8124  TIP7974     0.2052
 43284 H2          -9.2910    -5.8950   -52.5060 H      8124  TIP7974     0.2052
 43285 OH2         20.5310    29.8940    44.0440 O.3    8125  TIP7975    -0.4105
 43286 H1          21.3550    30.0950    43.6000 H      8125  TIP7975     0.2052
 43287 H2          20.2000    30.7440    44.3320 H      8125  TIP7975     0.2052
 43288 OH2        -19.9670   -21.1580   -34.4730 O.3    8126  TIP7976    -0.4105
 43289 H1         -19.7760   -21.5380   -35.3300 H      8126  TIP7976     0.2052
 43290 H2         -19.3080   -21.5360   -33.8910 H      8126  TIP7976     0.2052
 43291 OH2        -11.3400   -17.6780    52.1510 O.3    8127  TIP7977    -0.4105
 43292 H1         -11.6760   -17.6300    53.0460 H      8127  TIP7977     0.2052
 43293 H2         -12.0680   -17.3820    51.6050 H      8127  TIP7977     0.2052
 43294 OH2          7.8570     3.5420   -35.6720 O.3    8128  TIP7978    -0.4105
 43295 H1           8.6490     3.2960   -36.1490 H      8128  TIP7978     0.2052
 43296 H2           8.1740     3.8570   -34.8260 H      8128  TIP7978     0.2052
 43297 OH2         13.8910     1.3450   -14.4150 O.3    8129  TIP7979    -0.4105
 43298 H1          13.4530     1.3850   -13.5650 H      8129  TIP7979     0.2052
 43299 H2          14.8070     1.5480   -14.2240 H      8129  TIP7979     0.2052
 43300 OH2          9.3690    -4.6460    28.5090 O.3    8130  TIP7980    -0.4105
 43301 H1           8.6510    -4.5280    29.1310 H      8130  TIP7980     0.2052
 43302 H2           8.9670    -4.5120    27.6500 H      8130  TIP7980     0.2052
 43303 OH2         -9.2810     5.7220    41.3460 O.3    8131  TIP7981    -0.4105
 43304 H1          -8.8350     4.9240    41.6300 H      8131  TIP7981     0.2052
 43305 H2         -10.2030     5.5660    41.5460 H      8131  TIP7981     0.2052
 43306 OH2          2.1310    11.6830    35.8840 O.3    8132  TIP7982    -0.4105
 43307 H1           2.1430    12.0540    35.0020 H      8132  TIP7982     0.2052
 43308 H2           3.0200    11.8150    36.2130 H      8132  TIP7982     0.2052
 43309 OH2        -15.4780    14.4180    41.2400 O.3    8133  TIP7983    -0.4105
 43310 H1         -16.0810    13.6750    41.2150 H      8133  TIP7983     0.2052
 43311 H2         -15.7140    14.9440    40.4750 H      8133  TIP7983     0.2052
 43312 OH2          9.9900   -27.6710   -18.3690 O.3    8134  TIP7984    -0.4105
 43313 H1          10.5050   -26.8670   -18.3030 H      8134  TIP7984     0.2052
 43314 H2           9.0950   -27.3710   -18.5270 H      8134  TIP7984     0.2052
 43315 OH2          8.7450    21.1330   -40.6550 O.3    8135  TIP7985    -0.4105
 43316 H1           8.1120    21.7230   -40.2460 H      8135  TIP7985     0.2052
 43317 H2           9.3280    21.7100   -41.1490 H      8135  TIP7985     0.2052
 43318 OH2        -19.5150    -0.5150   -52.0370 O.3    8136  TIP7986    -0.4105
 43319 H1         -19.2800     0.3720   -52.3070 H      8136  TIP7986     0.2052
 43320 H2         -20.2500    -0.3970   -51.4360 H      8136  TIP7986     0.2052
 43321 OH2        -12.0660   -20.5430   -52.5240 O.3    8137  TIP7987    -0.4105
 43322 H1         -11.8500   -20.5190   -53.4570 H      8137  TIP7987     0.2052
 43323 H2         -12.4920   -19.7030   -52.3550 H      8137  TIP7987     0.2052
 43324 OH2        -27.7500    22.7450   -41.1290 O.3    8138  TIP7988    -0.4105
 43325 H1         -28.2080    23.5830   -41.2000 H      8138  TIP7988     0.2052
 43326 H2         -26.8660    22.9280   -41.4470 H      8138  TIP7988     0.2052
 43327 OH2         -2.0310   -11.3330   -40.4730 O.3    8139  TIP7989    -0.4105
 43328 H1          -2.5240   -11.3030   -41.2930 H      8139  TIP7989     0.2052
 43329 H2          -2.3140   -10.5530   -39.9950 H      8139  TIP7989     0.2052
 43330 OH2        -19.9420     9.3190   -48.7500 O.3    8140  TIP7990    -0.4105
 43331 H1         -20.8290     9.0550   -48.5050 H      8140  TIP7990     0.2052
 43332 H2         -19.4420     9.2640   -47.9350 H      8140  TIP7990     0.2052
 43333 OH2         17.9550    30.9630    54.1520 O.3    8141  TIP7991    -0.4105
 43334 H1          17.0290    31.1780    54.2590 H      8141  TIP7991     0.2052
 43335 H2          18.1520    30.3790    54.8840 H      8141  TIP7991     0.2052
 43336 OH2         30.6950     6.2640   -40.7870 O.3    8142  TIP7992    -0.4105
 43337 H1          30.8900     5.7510   -40.0030 H      8142  TIP7992     0.2052
 43338 H2          29.7440     6.3710   -40.7730 H      8142  TIP7992     0.2052
 43339 OH2         27.0510     9.5890    36.9300 O.3    8143  TIP7993    -0.4105
 43340 H1          26.4880     9.9430    37.6190 H      8143  TIP7993     0.2052
 43341 H2          26.8740    10.1420    36.1690 H      8143  TIP7993     0.2052
 43342 OH2         26.9470    -0.3910    16.3580 O.3    8144  TIP7994    -0.4105
 43343 H1          26.0330    -0.1140    16.4170 H      8144  TIP7994     0.2052
 43344 H2          27.1180    -0.8350    17.1880 H      8144  TIP7994     0.2052
 43345 OH2         28.8280     7.5330    19.3950 O.3    8145  TIP7995    -0.4105
 43346 H1          28.7840     8.4500    19.6650 H      8145  TIP7995     0.2052
 43347 H2          29.5260     7.1580    19.9320 H      8145  TIP7995     0.2052
 43348 OH2         10.4380     6.8270   -20.8500 O.3    8146  TIP7996    -0.4105
 43349 H1          10.2390     6.7240   -19.9200 H      8146  TIP7996     0.2052
 43350 H2          11.0700     6.1330   -21.0390 H      8146  TIP7996     0.2052
 43351 OH2        -21.1870   -22.3840    41.8440 O.3    8147  TIP7997    -0.4105
 43352 H1         -20.9080   -21.4940    42.0570 H      8147  TIP7997     0.2052
 43353 H2         -22.1250   -22.3940    42.0320 H      8147  TIP7997     0.2052
 43354 OH2         -5.9170    26.0880   -43.5100 O.3    8148  TIP7998    -0.4105
 43355 H1          -5.2900    25.5350   -43.0440 H      8148  TIP7998     0.2052
 43356 H2          -5.3820    26.6010   -44.1150 H      8148  TIP7998     0.2052
 43357 OH2         10.8410    -6.8050   -12.8950 O.3    8149  TIP7999    -0.4105
 43358 H1          10.5840    -5.9040   -12.7000 H      8149  TIP7999     0.2052
 43359 H2          10.5400    -6.9520   -13.7920 H      8149  TIP7999     0.2052
 43360 OH2        -23.6120    13.5280    44.4130 O.3    8150  TIP8000    -0.4105
 43361 H1         -24.2800    13.4520    45.0950 H      8150  TIP8000     0.2052
 43362 H2         -22.8210    13.7940    44.8820 H      8150  TIP8000     0.2052
 43363 OH2         16.4720   -30.8400   -43.2880 O.3    8151  TIP8001    -0.4105
 43364 H1          16.1310   -30.0750   -43.7510 H      8151  TIP8001     0.2052
 43365 H2          17.1620   -31.1790   -43.8590 H      8151  TIP8001     0.2052
 43366 OH2        -29.7670    -8.2080    25.8780 O.3    8152  TIP8002    -0.4105
 43367 H1         -29.6300    -9.0120    25.3770 H      8152  TIP8002     0.2052
 43368 H2         -30.3550    -7.6830    25.3350 H      8152  TIP8002     0.2052
 43369 OH2         -5.2690    29.5470    30.8380 O.3    8153  TIP8003    -0.4105
 43370 H1          -4.9250    30.3310    30.4100 H      8153  TIP8003     0.2052
 43371 H2          -4.4920    29.0300    31.0520 H      8153  TIP8003     0.2052
 43372 OH2        -23.6830    20.7020    19.9910 O.3    8154  TIP8004    -0.4105
 43373 H1         -23.6960    20.0430    20.6860 H      8154  TIP8004     0.2052
 43374 H2         -23.2660    20.2610    19.2510 H      8154  TIP8004     0.2052
 43375 OH2         14.7020    28.1670   -50.0780 O.3    8155  TIP8005    -0.4105
 43376 H1          14.2900    27.3030   -50.0450 H      8155  TIP8005     0.2052
 43377 H2          15.3970    28.1260   -49.4210 H      8155  TIP8005     0.2052
 43378 OH2        -21.7510    14.2600    28.3680 O.3    8156  TIP8006    -0.4105
 43379 H1         -22.6850    14.3670    28.5500 H      8156  TIP8006     0.2052
 43380 H2         -21.5500    13.3710    28.6600 H      8156  TIP8006     0.2052
 43381 OH2         25.3220    25.5440   -32.2230 O.3    8157  TIP8007    -0.4105
 43382 H1          26.2760    25.4680   -32.2390 H      8157  TIP8007     0.2052
 43383 H2          25.0530    25.3930   -33.1290 H      8157  TIP8007     0.2052
 43384 OH2        -32.7760   -16.1330   -47.3070 O.3    8158  TIP8008    -0.4105
 43385 H1         -33.6430   -15.7990   -47.0760 H      8158  TIP8008     0.2052
 43386 H2         -32.8660   -16.4260   -48.2130 H      8158  TIP8008     0.2052
 43387 OH2        -13.9400    25.5440    44.1410 O.3    8159  TIP8009    -0.4105
 43388 H1         -13.0590    25.9170    44.1160 H      8159  TIP8009     0.2052
 43389 H2         -14.0310    25.2050    45.0320 H      8159  TIP8009     0.2052
 43390 OH2        -29.7830    -6.8800    32.9080 O.3    8160  TIP8010    -0.4105
 43391 H1         -30.4700    -7.5150    32.7030 H      8160  TIP8010     0.2052
 43392 H2         -30.0190    -6.5420    33.7720 H      8160  TIP8010     0.2052
 43393 OH2        -29.0420     9.6570    30.0830 O.3    8161  TIP8011    -0.4105
 43394 H1         -28.1980    10.0200    29.8140 H      8161  TIP8011     0.2052
 43395 H2         -28.9100     9.3910    30.9930 H      8161  TIP8011     0.2052
 43396 OH2         12.6290    25.7910   -24.7560 O.3    8162  TIP8012    -0.4105
 43397 H1          12.2020    26.0070   -25.5860 H      8162  TIP8012     0.2052
 43398 H2          12.8010    26.6390   -24.3470 H      8162  TIP8012     0.2052
 43399 OH2         21.5530    15.6120    29.0750 O.3    8163  TIP8013    -0.4105
 43400 H1          20.9740    14.8540    29.1530 H      8163  TIP8013     0.2052
 43401 H2          21.8240    15.8020    29.9740 H      8163  TIP8013     0.2052
 43402 OH2         11.5330    11.3470    36.5020 O.3    8164  TIP8014    -0.4105
 43403 H1          10.7360    10.8180    36.5210 H      8164  TIP8014     0.2052
 43404 H2          11.3490    12.0790    37.0920 H      8164  TIP8014     0.2052
 43405 OH2         12.1840    22.8800    25.9340 O.3    8165  TIP8015    -0.4105
 43406 H1          12.4560    22.0390    26.3010 H      8165  TIP8015     0.2052
 43407 H2          12.7510    23.0040    25.1730 H      8165  TIP8015     0.2052
 43408 OH2        -16.8530   -15.0710   -49.2770 O.3    8166  TIP8016    -0.4105
 43409 H1         -17.2050   -15.3880   -48.4440 H      8166  TIP8016     0.2052
 43410 H2         -17.6260   -14.8230   -49.7840 H      8166  TIP8016     0.2052
 43411 OH2         16.2270   -12.8140    36.6840 O.3    8167  TIP8017    -0.4105
 43412 H1          16.3160   -11.8700    36.8140 H      8167  TIP8017     0.2052
 43413 H2          15.7480   -12.8990    35.8600 H      8167  TIP8017     0.2052
 43414 OH2         -1.5430    19.6080   -46.8910 O.3    8168  TIP8018    -0.4105
 43415 H1          -2.2430    20.0810   -46.4400 H      8168  TIP8018     0.2052
 43416 H2          -1.6270    19.8710   -47.8070 H      8168  TIP8018     0.2052
 43417 OH2         32.0420   -23.6540    49.9390 O.3    8169  TIP8019    -0.4105
 43418 H1          32.3450   -23.5330    50.8390 H      8169  TIP8019     0.2052
 43419 H2          32.6590   -23.1500    49.4090 H      8169  TIP8019     0.2052
 43420 OH2          2.8850    14.1780   -54.9470 O.3    8170  TIP8020    -0.4105
 43421 H1           2.9330    15.1200   -55.1090 H      8170  TIP8020     0.2052
 43422 H2           2.5500    14.1040   -54.0540 H      8170  TIP8020     0.2052
 43423 OH2         -2.0070   -24.2830    44.6030 O.3    8171  TIP8021    -0.4105
 43424 H1          -2.5810   -23.5260    44.7200 H      8171  TIP8021     0.2052
 43425 H2          -1.6790   -24.4740    45.4820 H      8171  TIP8021     0.2052
 43426 OH2         -1.2480     8.2780   -52.9190 O.3    8172  TIP8022    -0.4105
 43427 H1          -0.7340     8.0840   -52.1350 H      8172  TIP8022     0.2052
 43428 H2          -1.1540     7.4980   -53.4660 H      8172  TIP8022     0.2052
 43429 OH2         31.6730    15.4090   -19.7330 O.3    8173  TIP8023    -0.4105
 43430 H1          31.3900    16.3230   -19.7740 H      8173  TIP8023     0.2052
 43431 H2          30.8730    14.9200   -19.5390 H      8173  TIP8023     0.2052
 43432 OH2        -18.1540     8.8560    32.3950 O.3    8174  TIP8024    -0.4105
 43433 H1         -18.6840     9.4400    32.9380 H      8174  TIP8024     0.2052
 43434 H2         -17.7380     9.4340    31.7560 H      8174  TIP8024     0.2052
 43435 OH2        -13.9470   -10.0400    40.9430 O.3    8175  TIP8025    -0.4105
 43436 H1         -13.0790    -9.6350    40.9530 H      8175  TIP8025     0.2052
 43437 H2         -13.9290   -10.6260    40.1870 H      8175  TIP8025     0.2052
 43438 OH2         -0.7520   -32.1840    37.8810 O.3    8176  TIP8026    -0.4105
 43439 H1          -0.0070   -32.7030    38.1830 H      8176  TIP8026     0.2052
 43440 H2          -1.2000   -32.7490    37.2510 H      8176  TIP8026     0.2052
 43441 OH2        -21.0590   -24.4510    32.5810 O.3    8177  TIP8027    -0.4105
 43442 H1         -21.0830   -23.7440    33.2250 H      8177  TIP8027     0.2052
 43443 H2         -20.1270   -24.5770    32.3990 H      8177  TIP8027     0.2052
 43444 OH2         -9.7360   -32.6310    39.5900 O.3    8178  TIP8028    -0.4105
 43445 H1          -9.6560   -33.5210    39.2460 H      8178  TIP8028     0.2052
 43446 H2         -10.0780   -32.1200    38.8570 H      8178  TIP8028     0.2052
 43447 OH2         -9.5780    -5.5240    30.1710 O.3    8179  TIP8029    -0.4105
 43448 H1          -9.9320    -4.7260    29.7780 H      8179  TIP8029     0.2052
 43449 H2          -8.7530    -5.2490    30.5700 H      8179  TIP8029     0.2052
 43450 OH2         17.5650   -13.7760   -19.1540 O.3    8180  TIP8030    -0.4105
 43451 H1          17.2140   -14.6500   -19.3220 H      8180  TIP8030     0.2052
 43452 H2          16.7950   -13.2430   -18.9550 H      8180  TIP8030     0.2052
 43453 OH2        -26.1290   -20.8960    24.4560 O.3    8181  TIP8031    -0.4105
 43454 H1         -26.5580   -21.5840    24.9640 H      8181  TIP8031     0.2052
 43455 H2         -26.6150   -20.1000    24.6730 H      8181  TIP8031     0.2052
 43456 OH2         -3.8020   -16.8560    34.5770 O.3    8182  TIP8032    -0.4105
 43457 H1          -3.8410   -17.7410    34.9380 H      8182  TIP8032     0.2052
 43458 H2          -2.8670   -16.6530    34.5390 H      8182  TIP8032     0.2052
 43459 OH2        -31.4660    20.8110   -28.7860 O.3    8183  TIP8033    -0.4105
 43460 H1         -31.9960    21.1110   -29.5250 H      8183  TIP8033     0.2052
 43461 H2         -30.5670    20.8220   -29.1160 H      8183  TIP8033     0.2052
 43462 OH2         25.2310   -17.7960    54.7430 O.3    8184  TIP8034    -0.4105
 43463 H1          25.4240   -17.8380    53.8070 H      8184  TIP8034     0.2052
 43464 H2          25.5280   -18.6390    55.0870 H      8184  TIP8034     0.2052
 43465 OH2         -8.8120    15.7560   -52.3900 O.3    8185  TIP8035    -0.4105
 43466 H1          -8.3990    16.5950   -52.1850 H      8185  TIP8035     0.2052
 43467 H2          -9.1240    15.8560   -53.2900 H      8185  TIP8035     0.2052
 43468 OH2          2.1880     4.5380   -42.2050 O.3    8186  TIP8036    -0.4105
 43469 H1           1.9250     4.0240   -42.9680 H      8186  TIP8036     0.2052
 43470 H2           2.6970     5.2630   -42.5680 H      8186  TIP8036     0.2052
 43471 OH2        -19.8070   -26.6040    27.3570 O.3    8187  TIP8037    -0.4105
 43472 H1         -19.2730   -26.5890    28.1510 H      8187  TIP8037     0.2052
 43473 H2         -20.6130   -27.0490    27.6180 H      8187  TIP8037     0.2052
 43474 OH2         20.8720   -21.1210    40.3580 O.3    8188  TIP8038    -0.4105
 43475 H1          21.3930   -21.1090    39.5550 H      8188  TIP8038     0.2052
 43476 H2          20.5460   -20.2260    40.4470 H      8188  TIP8038     0.2052
 43477 OH2        -20.3300    24.7060   -42.9910 O.3    8189  TIP8039    -0.4105
 43478 H1         -20.6830    24.0750   -43.6180 H      8189  TIP8039     0.2052
 43479 H2         -19.7570    25.2680   -43.5140 H      8189  TIP8039     0.2052
 43480 OH2         16.0690    15.1380   -27.7690 O.3    8190  TIP8040    -0.4105
 43481 H1          15.5840    14.3190   -27.6700 H      8190  TIP8040     0.2052
 43482 H2          16.6050    15.0060   -28.5520 H      8190  TIP8040     0.2052
 43483 OH2        -29.2870     4.5230   -37.0950 O.3    8191  TIP8041    -0.4105
 43484 H1         -30.2210     4.7110   -37.1840 H      8191  TIP8041     0.2052
 43485 H2         -28.8520     5.3180   -37.4040 H      8191  TIP8041     0.2052
 43486 OH2         19.9700   -30.2910    23.8340 O.3    8192  TIP8042    -0.4105
 43487 H1          20.4100   -30.8420    23.1870 H      8192  TIP8042     0.2052
 43488 H2          19.2610   -30.8380    24.1720 H      8192  TIP8042     0.2052
 43489 OH2         -2.9510   -29.8920   -51.4020 O.3    8193  TIP8043    -0.4105
 43490 H1          -3.0180   -28.9380   -51.4580 H      8193  TIP8043     0.2052
 43491 H2          -3.4480   -30.2120   -52.1550 H      8193  TIP8043     0.2052
 43492 OH2         13.6780    17.8820   -51.9500 O.3    8194  TIP8044    -0.4105
 43493 H1          12.9570    18.5030   -51.8540 H      8194  TIP8044     0.2052
 43494 H2          13.3010    17.0370   -51.7050 H      8194  TIP8044     0.2052
 43495 OH2          6.2470    27.7060    39.8090 O.3    8195  TIP8045    -0.4105
 43496 H1           6.5090    27.0570    39.1560 H      8195  TIP8045     0.2052
 43497 H2           5.5100    28.1660    39.4080 H      8195  TIP8045     0.2052
 43498 OH2        -27.2440    25.2530    38.8310 O.3    8196  TIP8046    -0.4105
 43499 H1         -27.9810    25.8600    38.8940 H      8196  TIP8046     0.2052
 43500 H2         -27.1760    25.0540    37.8970 H      8196  TIP8046     0.2052
 43501 OH2        -14.5050   -18.6310    28.4550 O.3    8197  TIP8047    -0.4105
 43502 H1         -14.8220   -17.8600    27.9840 H      8197  TIP8047     0.2052
 43503 H2         -14.9380   -19.3690    28.0250 H      8197  TIP8047     0.2052
 43504 OH2         -3.3660    12.0950    42.1030 O.3    8198  TIP8048    -0.4105
 43505 H1          -3.6420    12.7960    42.6930 H      8198  TIP8048     0.2052
 43506 H2          -2.4470    11.9430    42.3240 H      8198  TIP8048     0.2052
 43507 OH2         25.4990   -10.3890    42.9500 O.3    8199  TIP8049    -0.4105
 43508 H1          25.0050   -10.8790    42.2930 H      8199  TIP8049     0.2052
 43509 H2          25.6380    -9.5290    42.5550 H      8199  TIP8049     0.2052
 43510 OH2        -14.9630    17.6070    41.3400 O.3    8200  TIP8050    -0.4105
 43511 H1         -14.9730    17.0780    42.1370 H      8200  TIP8050     0.2052
 43512 H2         -15.8850    17.6900    41.0950 H      8200  TIP8050     0.2052
 43513 OH2        -16.8130   -31.9050    37.6420 O.3    8201  TIP8051    -0.4105
 43514 H1         -16.6420   -32.1500    38.5520 H      8201  TIP8051     0.2052
 43515 H2         -16.2940   -31.1130    37.5050 H      8201  TIP8051     0.2052
 43516 OH2        -32.2870    -4.8910   -37.3640 O.3    8202  TIP8052    -0.4105
 43517 H1         -31.8940    -4.0540   -37.1160 H      8202  TIP8052     0.2052
 43518 H2         -32.0180    -5.0220   -38.2730 H      8202  TIP8052     0.2052
 43519 OH2          8.2380    20.6630    30.2300 O.3    8203  TIP8053    -0.4105
 43520 H1           8.8680    20.5980    29.5120 H      8203  TIP8053     0.2052
 43521 H2           8.7790    20.7440    31.0160 H      8203  TIP8053     0.2052
 43522 OH2        -24.2090   -30.0050    24.9010 O.3    8204  TIP8054    -0.4105
 43523 H1         -23.8630   -30.8950    24.8290 H      8204  TIP8054     0.2052
 43524 H2         -23.4980   -29.5020    25.2980 H      8204  TIP8054     0.2052
 43525 OH2         -1.4520    27.6400   -45.5740 O.3    8205  TIP8055    -0.4105
 43526 H1          -0.7220    27.0420   -45.4130 H      8205  TIP8055     0.2052
 43527 H2          -1.0370    28.4550   -45.8570 H      8205  TIP8055     0.2052
 43528 OH2         12.0880     9.1480    29.8550 O.3    8206  TIP8056    -0.4105
 43529 H1          11.3700     8.6770    29.4300 H      8206  TIP8056     0.2052
 43530 H2          12.8350     8.5530    29.7910 H      8206  TIP8056     0.2052
 43531 OH2        -19.5710    33.0440   -46.9430 O.3    8207  TIP8057    -0.4105
 43532 H1         -19.2320    32.3790   -47.5430 H      8207  TIP8057     0.2052
 43533 H2         -20.5230    32.9560   -47.0010 H      8207  TIP8057     0.2052
 43534 OH2         25.2370    -6.6640    19.3520 O.3    8208  TIP8058    -0.4105
 43535 H1          24.5200    -6.0290    19.3510 H      8208  TIP8058     0.2052
 43536 H2          25.7840    -6.4090    18.6090 H      8208  TIP8058     0.2052
 43537 OH2         -5.2500     8.6900   -24.9530 O.3    8209  TIP8059    -0.4105
 43538 H1          -5.5110     8.9950   -25.8220 H      8209  TIP8059     0.2052
 43539 H2          -4.9250     9.4740   -24.5100 H      8209  TIP8059     0.2052
 43540 OH2         19.4010    -6.7120   -51.7180 O.3    8210  TIP8060    -0.4105
 43541 H1          18.9190    -7.4600   -52.0710 H      8210  TIP8060     0.2052
 43542 H2          18.7410    -6.2030   -51.2470 H      8210  TIP8060     0.2052
 43543 OH2         21.2000   -30.4080   -39.8710 O.3    8211  TIP8061    -0.4105
 43544 H1          21.8990   -30.9960   -39.5860 H      8211  TIP8061     0.2052
 43545 H2          21.0610   -30.6290   -40.7920 H      8211  TIP8061     0.2052
 43546 OH2        -18.8450    -9.2550    37.0160 O.3    8212  TIP8062    -0.4105
 43547 H1         -18.9880    -9.9850    37.6190 H      8212  TIP8062     0.2052
 43548 H2         -19.3030    -8.5180    37.4200 H      8212  TIP8062     0.2052
 43549 OH2         16.8400    -8.8530   -25.9670 O.3    8213  TIP8063    -0.4105
 43550 H1          16.6050    -9.7760   -25.8750 H      8213  TIP8063     0.2052
 43551 H2          17.6620    -8.8630   -26.4570 H      8213  TIP8063     0.2052
 43552 OH2          6.5030    29.0730   -35.5510 O.3    8214  TIP8064    -0.4105
 43553 H1           6.3440    30.0020   -35.3860 H      8214  TIP8064     0.2052
 43554 H2           5.6300    28.6900   -35.6290 H      8214  TIP8064     0.2052
 43555 OH2        -24.5010     5.0510   -25.1530 O.3    8215  TIP8065    -0.4105
 43556 H1         -24.5060     4.7290   -24.2510 H      8215  TIP8065     0.2052
 43557 H2         -25.3710     4.8360   -25.4890 H      8215  TIP8065     0.2052
 43558 OH2         -2.9440    -2.0830   -50.1970 O.3    8216  TIP8066    -0.4105
 43559 H1          -2.6510    -1.1920   -50.0060 H      8216  TIP8066     0.2052
 43560 H2          -3.3140    -2.3960   -49.3710 H      8216  TIP8066     0.2052
 43561 OH2         18.9430     8.3230    49.9080 O.3    8217  TIP8067    -0.4105
 43562 H1          18.1790     7.8040    50.1600 H      8217  TIP8067     0.2052
 43563 H2          19.6800     7.7170    49.9790 H      8217  TIP8067     0.2052
 43564 OH2         24.4230     3.3360   -48.0790 O.3    8218  TIP8068    -0.4105
 43565 H1          25.3670     3.3960   -48.2260 H      8218  TIP8068     0.2052
 43566 H2          24.3350     3.2130   -47.1340 H      8218  TIP8068     0.2052
 43567 OH2         25.2290   -14.1270   -32.4310 O.3    8219  TIP8069    -0.4105
 43568 H1          25.1310   -13.2000   -32.2140 H      8219  TIP8069     0.2052
 43569 H2          26.1220   -14.3430   -32.1640 H      8219  TIP8069     0.2052
 43570 OH2        -27.1180   -23.0450    25.8210 O.3    8220  TIP8070    -0.4105
 43571 H1         -28.0580   -22.9230    25.6850 H      8220  TIP8070     0.2052
 43572 H2         -27.0230   -23.9760    26.0220 H      8220  TIP8070     0.2052
 43573 OH2          1.7810     1.0170   -36.4550 O.3    8221  TIP8071    -0.4105
 43574 H1           2.2380     0.9090   -35.6210 H      8221  TIP8071     0.2052
 43575 H2           0.8560     1.0650   -36.2170 H      8221  TIP8071     0.2052
 43576 OH2         23.3020    13.5630   -47.6690 O.3    8222  TIP8072    -0.4105
 43577 H1          23.1560    14.4510   -47.9940 H      8222  TIP8072     0.2052
 43578 H2          24.0840    13.6330   -47.1210 H      8222  TIP8072     0.2052
 43579 OH2        -32.9010     7.8190    38.4380 O.3    8223  TIP8073    -0.4105
 43580 H1         -33.2270     8.6890    38.6680 H      8223  TIP8073     0.2052
 43581 H2         -31.9540     7.9320    38.3550 H      8223  TIP8073     0.2052
 43582 OH2          2.4340    23.8420    54.3610 O.3    8224  TIP8074    -0.4105
 43583 H1           2.1440    24.7300    54.5670 H      8224  TIP8074     0.2052
 43584 H2           3.3680    23.8390    54.5730 H      8224  TIP8074     0.2052
 43585 OH2        -14.6690    31.0370   -51.1870 O.3    8225  TIP8075    -0.4105
 43586 H1         -14.8900    30.4960   -50.4290 H      8225  TIP8075     0.2052
 43587 H2         -14.1300    31.7420   -50.8290 H      8225  TIP8075     0.2052
 43588 OH2         15.4940   -28.0750   -43.9090 O.3    8226  TIP8076    -0.4105
 43589 H1          15.8520   -27.6120   -43.1510 H      8226  TIP8076     0.2052
 43590 H2          15.9840   -27.7300   -44.6550 H      8226  TIP8076     0.2052
 43591 OH2         15.4080    11.6130    50.1160 O.3    8227  TIP8077    -0.4105
 43592 H1          14.6310    11.5070    50.6650 H      8227  TIP8077     0.2052
 43593 H2          15.3710    10.8800    49.5020 H      8227  TIP8077     0.2052
 43594 OH2         -5.5350     3.6520    54.1380 O.3    8228  TIP8078    -0.4105
 43595 H1          -4.6030     3.8190    54.0000 H      8228  TIP8078     0.2052
 43596 H2          -5.6140     2.6980    54.1140 H      8228  TIP8078     0.2052
 43597 OH2        -18.3000    17.3850    34.8200 O.3    8229  TIP8079    -0.4105
 43598 H1         -18.5880    18.2880    34.9550 H      8229  TIP8079     0.2052
 43599 H2         -17.4070    17.4660    34.4840 H      8229  TIP8079     0.2052
 43600 OH2        -20.9010    10.4540    46.4550 O.3    8230  TIP8080    -0.4105
 43601 H1         -20.3690     9.8660    45.9190 H      8230  TIP8080     0.2052
 43602 H2         -20.7440    10.1670    47.3550 H      8230  TIP8080     0.2052
 43603 OH2         31.3000    12.8150    25.8630 O.3    8231  TIP8081    -0.4105
 43604 H1          31.8190    13.6100    25.9820 H      8231  TIP8081     0.2052
 43605 H2          30.5550    12.9240    26.4530 H      8231  TIP8081     0.2052
 43606 OH2        -17.6400    -3.4570   -36.1760 O.3    8232  TIP8082    -0.4105
 43607 H1         -18.1350    -2.8670   -36.7450 H      8232  TIP8082     0.2052
 43608 H2         -17.1840    -2.8750   -35.5670 H      8232  TIP8082     0.2052
 43609 OH2        -21.8810    22.6520    40.5840 O.3    8233  TIP8083    -0.4105
 43610 H1         -21.8480    21.8030    40.1440 H      8233  TIP8083     0.2052
 43611 H2         -21.3220    22.5450    41.3530 H      8233  TIP8083     0.2052
 43612 OH2          5.4600     9.3770   -24.3280 O.3    8234  TIP8084    -0.4105
 43613 H1           5.1360    10.2640   -24.1690 H      8234  TIP8084     0.2052
 43614 H2           4.9550     9.0690   -25.0810 H      8234  TIP8084     0.2052
 43615 OH2        -12.0410    -2.0340   -18.9030 O.3    8235  TIP8085    -0.4105
 43616 H1         -12.2920    -1.3360   -18.2980 H      8235  TIP8085     0.2052
 43617 H2         -12.1180    -2.8370   -18.3870 H      8235  TIP8085     0.2052
 43618 OH2        -29.6030     9.8530   -27.9400 O.3    8236  TIP8086    -0.4105
 43619 H1         -30.1450    10.0730   -27.1830 H      8236  TIP8086     0.2052
 43620 H2         -28.9780    10.5740   -28.0070 H      8236  TIP8086     0.2052
 43621 OH2         30.7680     4.6530   -15.4250 O.3    8237  TIP8087    -0.4105
 43622 H1          30.2700     4.9870   -16.1710 H      8237  TIP8087     0.2052
 43623 H2          30.1010     4.3730   -14.7980 H      8237  TIP8087     0.2052
 43624 OH2        -10.0720   -16.0410    44.8660 O.3    8238  TIP8088    -0.4105
 43625 H1         -10.7130   -16.6290    44.4680 H      8238  TIP8088     0.2052
 43626 H2         -10.5510   -15.2260    45.0120 H      8238  TIP8088     0.2052
 43627 OH2         25.9400   -29.1790   -32.4980 O.3    8239  TIP8089    -0.4105
 43628 H1          26.6770   -29.6680   -32.1350 H      8239  TIP8089     0.2052
 43629 H2          26.3420   -28.5340   -33.0800 H      8239  TIP8089     0.2052
 43630 OH2         -0.4210     7.4640    53.6370 O.3    8240  TIP8090    -0.4105
 43631 H1          -0.3560     6.7480    53.0050 H      8240  TIP8090     0.2052
 43632 H2           0.0650     7.1540    54.4010 H      8240  TIP8090     0.2052
 43633 OH2         -1.3540     5.1080   -41.4200 O.3    8241  TIP8091    -0.4105
 43634 H1          -1.2870     4.8380   -42.3360 H      8241  TIP8091     0.2052
 43635 H2          -0.9110     5.9560   -41.3870 H      8241  TIP8091     0.2052
 43636 OH2         32.0380   -22.9420    19.2040 O.3    8242  TIP8092    -0.4105
 43637 H1          31.2000   -22.9870    19.6660 H      8242  TIP8092     0.2052
 43638 H2          31.8940   -23.4380    18.3980 H      8242  TIP8092     0.2052
 43639 OH2         23.1730    -6.8450    49.5930 O.3    8243  TIP8093    -0.4105
 43640 H1          24.0860    -6.8640    49.8790 H      8243  TIP8093     0.2052
 43641 H2          22.6680    -6.8060    50.4050 H      8243  TIP8093     0.2052
 43642 OH2         19.9890    14.8600   -22.7050 O.3    8244  TIP8094    -0.4105
 43643 H1          19.8420    14.2590   -21.9750 H      8244  TIP8094     0.2052
 43644 H2          20.5590    15.5390   -22.3460 H      8244  TIP8094     0.2052
 43645 OH2        -28.5890   -28.4460    23.4630 O.3    8245  TIP8095    -0.4105
 43646 H1         -27.8380   -28.9990    23.2490 H      8245  TIP8095     0.2052
 43647 H2         -28.8830   -28.7600    24.3180 H      8245  TIP8095     0.2052
 43648 OH2          4.0420   -26.9280    23.2570 O.3    8246  TIP8096    -0.4105
 43649 H1           3.9570   -26.0030    23.0250 H      8246  TIP8096     0.2052
 43650 H2           4.3080   -27.3560    22.4440 H      8246  TIP8096     0.2052
 43651 OH2         13.4610    31.9420    23.7200 O.3    8247  TIP8097    -0.4105
 43652 H1          13.8560    32.1290    22.8690 H      8247  TIP8097     0.2052
 43653 H2          14.1310    32.1940    24.3560 H      8247  TIP8097     0.2052
 43654 OH2          6.9260     8.6330    53.8820 O.3    8248  TIP8098    -0.4105
 43655 H1           6.6470     9.5280    53.6900 H      8248  TIP8098     0.2052
 43656 H2           6.1360     8.1990    54.2020 H      8248  TIP8098     0.2052
 43657 OH2          5.6830     4.3970    -6.5030 O.3    8249  TIP8099    -0.4105
 43658 H1           5.8940     3.7630    -7.1880 H      8249  TIP8099     0.2052
 43659 H2           5.9360     5.2430    -6.8730 H      8249  TIP8099     0.2052
 43660 OH2        -13.0570   -12.5460   -33.1140 O.3    8250  TIP8100    -0.4105
 43661 H1         -13.9760   -12.7550   -33.2840 H      8250  TIP8100     0.2052
 43662 H2         -12.8930   -12.8830   -32.2330 H      8250  TIP8100     0.2052
 43663 OH2        -28.6040     5.5720    38.1540 O.3    8251  TIP8101    -0.4105
 43664 H1         -28.1160     6.0290    37.4690 H      8251  TIP8101     0.2052
 43665 H2         -29.4430     6.0320    38.1970 H      8251  TIP8101     0.2052
 43666 OH2         25.4040     7.3270    36.9850 O.3    8252  TIP8102    -0.4105
 43667 H1          25.7810     8.2040    36.9080 H      8252  TIP8102     0.2052
 43668 H2          24.4590     7.4730    37.0080 H      8252  TIP8102     0.2052
 43669 OH2         10.9310    23.8510    28.4380 O.3    8253  TIP8103    -0.4105
 43670 H1          11.5570    24.0280    27.7360 H      8253  TIP8103     0.2052
 43671 H2          10.8840    24.6710    28.9300 H      8253  TIP8103     0.2052
 43672 OH2        -20.7410    14.3000   -42.8640 O.3    8254  TIP8104    -0.4105
 43673 H1         -20.2230    14.7630   -42.2050 H      8254  TIP8104     0.2052
 43674 H2         -20.4850    14.6990   -43.6950 H      8254  TIP8104     0.2052
 43675 OH2          3.5280   -22.4990    49.2200 O.3    8255  TIP8105    -0.4105
 43676 H1           3.6600   -21.6380    49.6150 H      8255  TIP8105     0.2052
 43677 H2           4.4090   -22.8670    49.1470 H      8255  TIP8105     0.2052
 43678 OH2          7.5070   -31.1700   -55.5170 O.3    8256  TIP8106    -0.4105
 43679 H1           7.1640   -30.8640   -56.3570 H      8256  TIP8106     0.2052
 43680 H2           7.4430   -32.1240   -55.5650 H      8256  TIP8106     0.2052
 43681 OH2         20.1190   -23.9120   -15.8280 O.3    8257  TIP8107    -0.4105
 43682 H1          20.8170   -24.5240   -15.5940 H      8257  TIP8107     0.2052
 43683 H2          20.2520   -23.7430   -16.7610 H      8257  TIP8107     0.2052
 43684 OH2          6.3420    30.4680    21.3530 O.3    8258  TIP8108    -0.4105
 43685 H1           5.5180    29.9810    21.3590 H      8258  TIP8108     0.2052
 43686 H2           6.9880    29.8430    21.0230 H      8258  TIP8108     0.2052
 43687 OH2         17.3260   -16.3960   -17.6050 O.3    8259  TIP8109    -0.4105
 43688 H1          16.8160   -15.9920   -16.9030 H      8259  TIP8109     0.2052
 43689 H2          18.2350   -16.3250   -17.3130 H      8259  TIP8109     0.2052
 43690 OH2        -16.5660    17.1630   -49.6000 O.3    8260  TIP8110    -0.4105
 43691 H1         -16.8440    16.3980   -49.0960 H      8260  TIP8110     0.2052
 43692 H2         -16.2530    16.8020   -50.4290 H      8260  TIP8110     0.2052
 43693 OH2         -1.7780    -0.9310    37.5840 O.3    8261  TIP8111    -0.4105
 43694 H1          -0.8600    -1.1960    37.6400 H      8261  TIP8111     0.2052
 43695 H2          -2.0290    -1.1220    36.6800 H      8261  TIP8111     0.2052
 43696 OH2         22.9610    27.8940    38.9870 O.3    8262  TIP8112    -0.4105
 43697 H1          22.5230    27.7740    38.1450 H      8262  TIP8112     0.2052
 43698 H2          22.4120    28.5220    39.4560 H      8262  TIP8112     0.2052
 43699 OH2         -4.1020   -29.7550    50.6450 O.3    8263  TIP8113    -0.4105
 43700 H1          -4.7480   -29.2790    50.1240 H      8263  TIP8113     0.2052
 43701 H2          -4.0530   -30.6190    50.2350 H      8263  TIP8113     0.2052
 43702 OH2         27.7070   -28.2260    18.3300 O.3    8264  TIP8114    -0.4105
 43703 H1          27.4490   -28.9180    17.7200 H      8264  TIP8114     0.2052
 43704 H2          28.6550   -28.1490    18.2180 H      8264  TIP8114     0.2052
 43705 OH2         29.5850    25.3930    32.8090 O.3    8265  TIP8115    -0.4105
 43706 H1          29.5410    25.9640    32.0410 H      8265  TIP8115     0.2052
 43707 H2          28.7510    24.9240    32.8070 H      8265  TIP8115     0.2052
 43708 OH2         21.6510   -31.9580   -53.8320 O.3    8266  TIP8116    -0.4105
 43709 H1          22.1190   -32.7500   -53.5680 H      8266  TIP8116     0.2052
 43710 H2          20.7380   -32.2340   -53.9130 H      8266  TIP8116     0.2052
 43711 OH2        -10.6780    17.4450   -38.0730 O.3    8267  TIP8117    -0.4105
 43712 H1         -11.2320    17.2710   -38.8340 H      8267  TIP8117     0.2052
 43713 H2          -9.8200    17.0960   -38.3150 H      8267  TIP8117     0.2052
 43714 OH2          3.8950    29.4480    22.3620 O.3    8268  TIP8118    -0.4105
 43715 H1           3.5720    30.2210    22.8250 H      8268  TIP8118     0.2052
 43716 H2           3.1660    28.8290    22.3910 H      8268  TIP8118     0.2052
 43717 OH2        -19.4430   -14.9100    46.2700 O.3    8269  TIP8119    -0.4105
 43718 H1         -20.2320   -15.4420    46.1660 H      8269  TIP8119     0.2052
 43719 H2         -18.9490   -15.0510    45.4620 H      8269  TIP8119     0.2052
 43720 OH2        -15.1960   -30.9320   -39.7920 O.3    8270  TIP8120    -0.4105
 43721 H1         -14.3220   -31.3010   -39.9200 H      8270  TIP8120     0.2052
 43722 H2         -15.0370   -30.0550   -39.4410 H      8270  TIP8120     0.2052
 43723 OH2          4.2410    -0.0730   -37.7340 O.3    8271  TIP8121    -0.4105
 43724 H1           3.4870    -0.4000   -37.2410 H      8271  TIP8121     0.2052
 43725 H2           4.1970    -0.5320   -38.5720 H      8271  TIP8121     0.2052
 43726 OH2         32.0860    10.5650    38.4540 O.3    8272  TIP8122    -0.4105
 43727 H1          31.7180    11.4320    38.6250 H      8272  TIP8122     0.2052
 43728 H2          31.3280     9.9810    38.4390 H      8272  TIP8122     0.2052
 43729 OH2         29.7220     3.0390    52.5450 O.3    8273  TIP8123    -0.4105
 43730 H1          29.9730     3.7560    51.9630 H      8273  TIP8123     0.2052
 43731 H2          29.2620     2.4190    51.9790 H      8273  TIP8123     0.2052
 43732 OH2         12.5650   -32.3550    31.4060 O.3    8274  TIP8124    -0.4105
 43733 H1          12.7460   -33.2750    31.2150 H      8274  TIP8124     0.2052
 43734 H2          12.7090   -32.2730    32.3490 H      8274  TIP8124     0.2052
 43735 OH2        -21.0440    -7.6820   -54.9390 O.3    8275  TIP8125    -0.4105
 43736 H1         -20.6780    -8.4540   -54.5070 H      8275  TIP8125     0.2052
 43737 H2         -20.6440    -7.6820   -55.8080 H      8275  TIP8125     0.2052
 43738 OH2        -16.7680   -14.8100    47.6790 O.3    8276  TIP8126    -0.4105
 43739 H1         -16.2150   -14.6370    46.9180 H      8276  TIP8126     0.2052
 43740 H2         -17.3570   -15.5090    47.3950 H      8276  TIP8126     0.2052
 43741 OH2          7.0430   -14.8050    46.6460 O.3    8277  TIP8127    -0.4105
 43742 H1           6.8970   -14.4600    45.7660 H      8277  TIP8127     0.2052
 43743 H2           7.1030   -15.7530    46.5260 H      8277  TIP8127     0.2052
 43744 OH2        -14.3810     8.8500    37.3400 O.3    8278  TIP8128    -0.4105
 43745 H1         -14.8430     8.1180    37.7480 H      8278  TIP8128     0.2052
 43746 H2         -14.7910     8.9440    36.4800 H      8278  TIP8128     0.2052
 43747 OH2        -30.0430   -17.1600    47.3540 O.3    8279  TIP8129    -0.4105
 43748 H1         -29.1920   -16.7320    47.4480 H      8279  TIP8129     0.2052
 43749 H2         -29.9850   -17.9340    47.9150 H      8279  TIP8129     0.2052
 43750 OH2         22.7250   -32.1870    29.2150 O.3    8280  TIP8130    -0.4105
 43751 H1          22.5140   -31.7270    28.4030 H      8280  TIP8130     0.2052
 43752 H2          23.6390   -32.4540    29.1090 H      8280  TIP8130     0.2052
 43753 OH2        -19.5530    27.3520    36.8160 O.3    8281  TIP8131    -0.4105
 43754 H1         -19.4730    26.9100    37.6610 H      8281  TIP8131     0.2052
 43755 H2         -19.1130    26.7680    36.1980 H      8281  TIP8131     0.2052
 43756 OH2         -6.3490     7.1230   -30.3380 O.3    8282  TIP8132    -0.4105
 43757 H1          -6.3370     6.9160   -31.2720 H      8282  TIP8132     0.2052
 43758 H2          -5.5270     6.7670   -30.0020 H      8282  TIP8132     0.2052
 43759 OH2        -15.1350    16.9700    29.1030 O.3    8283  TIP8133    -0.4105
 43760 H1         -15.9890    17.0910    29.5170 H      8283  TIP8133     0.2052
 43761 H2         -14.7170    17.8300    29.1590 H      8283  TIP8133     0.2052
 43762 OH2          8.7530   -13.1570   -40.7800 O.3    8284  TIP8134    -0.4105
 43763 H1           8.0180   -12.6490   -41.1260 H      8284  TIP8134     0.2052
 43764 H2           9.3050   -13.3280   -41.5430 H      8284  TIP8134     0.2052
 43765 OH2         -0.4070    -3.8050    26.0510 O.3    8285  TIP8135    -0.4105
 43766 H1          -0.9450    -3.3210    25.4250 H      8285  TIP8135     0.2052
 43767 H2           0.2220    -3.1610    26.3760 H      8285  TIP8135     0.2052
 43768 OH2         11.2400   -25.5750   -33.0900 O.3    8286  TIP8136    -0.4105
 43769 H1          10.8360   -25.3780   -33.9360 H      8286  TIP8136     0.2052
 43770 H2          11.2900   -24.7280   -32.6460 H      8286  TIP8136     0.2052
 43771 OH2         26.5750    11.8480   -52.2830 O.3    8287  TIP8137    -0.4105
 43772 H1          26.4560    11.3900   -51.4510 H      8287  TIP8137     0.2052
 43773 H2          27.4940    11.7030   -52.5080 H      8287  TIP8137     0.2052
 43774 OH2         26.4340    20.7570   -32.0600 O.3    8288  TIP8138    -0.4105
 43775 H1          26.5850    21.0170   -32.9690 H      8288  TIP8138     0.2052
 43776 H2          26.0580    19.8790   -32.1210 H      8288  TIP8138     0.2052
 43777 OH2        -23.0440    30.7030   -44.4770 O.3    8289  TIP8139    -0.4105
 43778 H1         -24.0000    30.7420   -44.5050 H      8289  TIP8139     0.2052
 43779 H2         -22.8460    30.2990   -43.6320 H      8289  TIP8139     0.2052
 43780 OH2          6.3470    22.7720    23.7540 O.3    8290  TIP8140    -0.4105
 43781 H1           5.8740    23.2510    23.0740 H      8290  TIP8140     0.2052
 43782 H2           6.8630    22.1230    23.2760 H      8290  TIP8140     0.2052
 43783 OH2        -31.1050    28.9410   -48.9430 O.3    8291  TIP8141    -0.4105
 43784 H1         -30.3600    29.5080   -48.7400 H      8291  TIP8141     0.2052
 43785 H2         -30.8470    28.4850   -49.7450 H      8291  TIP8141     0.2052
 43786 OH2        -30.1020    22.1480   -49.8810 O.3    8292  TIP8142    -0.4105
 43787 H1         -30.4880    22.9870   -50.1320 H      8292  TIP8142     0.2052
 43788 H2         -30.8520    21.5750   -49.7240 H      8292  TIP8142     0.2052
 43789 OH2         27.8300   -12.7860    43.2790 O.3    8293  TIP8143    -0.4105
 43790 H1          28.1270   -12.0420    42.7560 H      8293  TIP8143     0.2052
 43791 H2          27.7570   -13.5060    42.6530 H      8293  TIP8143     0.2052
 43792 OH2          3.6600    28.7490    27.7190 O.3    8294  TIP8144    -0.4105
 43793 H1           4.6160    28.8040    27.7420 H      8294  TIP8144     0.2052
 43794 H2           3.4270    28.2860    28.5240 H      8294  TIP8144     0.2052
 43795 OH2         -2.5050    11.3830    46.7810 O.3    8295  TIP8145    -0.4105
 43796 H1          -2.2780    11.0580    45.9100 H      8295  TIP8145     0.2052
 43797 H2          -1.8770    10.9580    47.3660 H      8295  TIP8145     0.2052
 43798 OH2        -21.2440   -10.3410   -27.0580 O.3    8296  TIP8146    -0.4105
 43799 H1         -21.8300   -11.0560   -27.3050 H      8296  TIP8146     0.2052
 43800 H2         -20.9430   -10.5710   -26.1780 H      8296  TIP8146     0.2052
 43801 OH2         17.2320   -19.9200   -46.9160 O.3    8297  TIP8147    -0.4105
 43802 H1          17.6750   -20.6990   -46.5800 H      8297  TIP8147     0.2052
 43803 H2          17.3660   -19.9590   -47.8640 H      8297  TIP8147     0.2052
 43804 OH2        -30.2160    20.1840   -32.7400 O.3    8298  TIP8148    -0.4105
 43805 H1         -30.0220    20.0830   -33.6720 H      8298  TIP8148     0.2052
 43806 H2         -30.5500    21.0780   -32.6600 H      8298  TIP8148     0.2052
 43807 OH2         10.0610    13.6780   -21.2210 O.3    8299  TIP8149    -0.4105
 43808 H1          10.0440    13.2620   -22.0830 H      8299  TIP8149     0.2052
 43809 H2          10.2640    12.9660   -20.6150 H      8299  TIP8149     0.2052
 43810 OH2        -25.5060   -32.4010    54.1550 O.3    8300  TIP8150    -0.4105
 43811 H1         -26.3880   -32.7570    54.2610 H      8300  TIP8150     0.2052
 43812 H2         -25.3400   -31.9260    54.9700 H      8300  TIP8150     0.2052
 43813 OH2         -6.6000    15.1630    46.8410 O.3    8301  TIP8151    -0.4105
 43814 H1          -5.7870    14.6590    46.8070 H      8301  TIP8151     0.2052
 43815 H2          -7.2860    14.5280    46.6380 H      8301  TIP8151     0.2052
 43816 OH2         -2.1160    -4.4830    51.3440 O.3    8302  TIP8152    -0.4105
 43817 H1          -1.8060    -5.3480    51.6120 H      8302  TIP8152     0.2052
 43818 H2          -1.5570    -3.8700    51.8210 H      8302  TIP8152     0.2052
 43819 OH2        -12.6480     7.4130    50.1340 O.3    8303  TIP8153    -0.4105
 43820 H1         -12.6040     8.3680    50.1800 H      8303  TIP8153     0.2052
 43821 H2         -13.3650     7.2350    49.5260 H      8303  TIP8153     0.2052
 43822 OH2         29.0370   -23.3120    27.0050 O.3    8304  TIP8154    -0.4105
 43823 H1          29.1500   -24.1760    27.4010 H      8304  TIP8154     0.2052
 43824 H2          28.3220   -23.4270    26.3780 H      8304  TIP8154     0.2052
 43825 OH2        -15.1860   -26.2880    42.8210 O.3    8305  TIP8155    -0.4105
 43826 H1         -14.7870   -26.1440    43.6790 H      8305  TIP8155     0.2052
 43827 H2         -16.1170   -26.4060    43.0070 H      8305  TIP8155     0.2052
 43828 OH2         -0.5640    14.7300   -54.6240 O.3    8306  TIP8156    -0.4105
 43829 H1          -1.2450    15.4000   -54.6880 H      8306  TIP8156     0.2052
 43830 H2          -0.5040    14.3630   -55.5050 H      8306  TIP8156     0.2052
 43831 OH2         29.0920    15.9190   -23.4490 O.3    8307  TIP8157    -0.4105
 43832 H1          28.8680    15.4340   -22.6540 H      8307  TIP8157     0.2052
 43833 H2          29.9970    16.2000   -23.3110 H      8307  TIP8157     0.2052
 43834 OH2         23.1320    16.5560    42.1700 O.3    8308  TIP8158    -0.4105
 43835 H1          22.2050    16.3840    42.3330 H      8308  TIP8158     0.2052
 43836 H2          23.5470    15.6950    42.2130 H      8308  TIP8158     0.2052
 43837 OH2         23.7500    17.5770    34.1170 O.3    8309  TIP8159    -0.4105
 43838 H1          24.3700    17.0720    34.6430 H      8309  TIP8159     0.2052
 43839 H2          23.0990    17.8880    34.7460 H      8309  TIP8159     0.2052
 43840 OH2         11.3270    -7.4630    46.3360 O.3    8310  TIP8160    -0.4105
 43841 H1          12.0640    -7.9910    46.6430 H      8310  TIP8160     0.2052
 43842 H2          11.5940    -6.5580    46.5000 H      8310  TIP8160     0.2052
 43843 OH2         22.5030   -14.2910    39.6460 O.3    8311  TIP8161    -0.4105
 43844 H1          21.8450   -14.7880    40.1320 H      8311  TIP8161     0.2052
 43845 H2          22.0400   -13.5100    39.3430 H      8311  TIP8161     0.2052
 43846 OH2        -30.4880   -19.5370    25.0040 O.3    8312  TIP8162    -0.4105
 43847 H1         -30.9160   -19.6370    24.1530 H      8312  TIP8162     0.2052
 43848 H2         -31.1670   -19.7560    25.6420 H      8312  TIP8162     0.2052
 43849 OH2         18.9750   -26.9940   -35.0080 O.3    8313  TIP8163    -0.4105
 43850 H1          18.7020   -26.7110   -35.8810 H      8313  TIP8163     0.2052
 43851 H2          19.6170   -26.3390   -34.7340 H      8313  TIP8163     0.2052
 43852 OH2        -15.0980    13.1400   -34.9150 O.3    8314  TIP8164    -0.4105
 43853 H1         -14.9420    12.4540   -34.2660 H      8314  TIP8164     0.2052
 43854 H2         -14.6330    13.9040   -34.5740 H      8314  TIP8164     0.2052
 43855 OH2         -4.2020   -21.9570   -27.3030 O.3    8315  TIP8165    -0.4105
 43856 H1          -4.1470   -22.8970   -27.4750 H      8315  TIP8165     0.2052
 43857 H2          -5.1350   -21.7940   -27.1620 H      8315  TIP8165     0.2052
 43858 OH2         16.4480   -20.7060   -25.9050 O.3    8316  TIP8166    -0.4105
 43859 H1          17.1080   -20.6350   -25.2150 H      8316  TIP8166     0.2052
 43860 H2          16.7280   -20.0800   -26.5720 H      8316  TIP8166     0.2052
 43861 OH2         -2.2800   -30.8840    31.4710 O.3    8317  TIP8167    -0.4105
 43862 H1          -2.5160   -31.4110    30.7070 H      8317  TIP8167     0.2052
 43863 H2          -3.0850   -30.4190    31.6990 H      8317  TIP8167     0.2052
 43864 OH2        -30.4520    21.3710   -54.4630 O.3    8318  TIP8168    -0.4105
 43865 H1         -29.7460    22.0040   -54.3320 H      8318  TIP8168     0.2052
 43866 H2         -30.0630    20.5270   -54.2350 H      8318  TIP8168     0.2052
 43867 OH2        -23.6390    -6.5730    55.2440 O.3    8319  TIP8169    -0.4105
 43868 H1         -22.8120    -6.9100    55.5890 H      8319  TIP8169     0.2052
 43869 H2         -23.8220    -7.1210    54.4810 H      8319  TIP8169     0.2052
 43870 OH2         14.7750   -32.7620   -38.5080 O.3    8320  TIP8170    -0.4105
 43871 H1          13.9580   -32.4640   -38.9080 H      8320  TIP8170     0.2052
 43872 H2          15.2660   -31.9580   -38.3400 H      8320  TIP8170     0.2052
 43873 OH2         21.1870     1.7110   -47.4480 O.3    8321  TIP8171    -0.4105
 43874 H1          20.6470     1.6040   -48.2320 H      8321  TIP8171     0.2052
 43875 H2          21.5000     0.8280   -47.2510 H      8321  TIP8171     0.2052
 43876 OH2        -15.4120    -9.8270   -53.0060 O.3    8322  TIP8172    -0.4105
 43877 H1         -15.7970    -9.6630   -53.8670 H      8322  TIP8172     0.2052
 43878 H2         -14.8110   -10.5580   -53.1470 H      8322  TIP8172     0.2052
 43879 OH2         16.3290    31.2580   -37.3150 O.3    8323  TIP8173    -0.4105
 43880 H1          16.7270    31.9720   -36.8170 H      8323  TIP8173     0.2052
 43881 H2          15.8160    31.6970   -37.9940 H      8323  TIP8173     0.2052
 43882 OH2          5.1910   -16.2240    53.5850 O.3    8324  TIP8174    -0.4105
 43883 H1           5.1880   -16.8420    54.3170 H      8324  TIP8174     0.2052
 43884 H2           5.0010   -16.7630    52.8170 H      8324  TIP8174     0.2052
 43885 OH2         18.0950     1.9690    22.0880 O.3    8325  TIP8175    -0.4105
 43886 H1          17.9430     1.7940    21.1600 H      8325  TIP8175     0.2052
 43887 H2          18.9640     1.6070    22.2620 H      8325  TIP8175     0.2052
 43888 OH2          0.0380    -8.3820   -44.9340 O.3    8326  TIP8176    -0.4105
 43889 H1          -0.0390    -8.0540   -44.0380 H      8326  TIP8176     0.2052
 43890 H2          -0.1270    -7.6170   -45.4850 H      8326  TIP8176     0.2052
 43891 OH2         12.5980    15.3760    28.6810 O.3    8327  TIP8177    -0.4105
 43892 H1          12.0080    14.6990    29.0130 H      8327  TIP8177     0.2052
 43893 H2          12.0890    16.1850    28.7330 H      8327  TIP8177     0.2052
 43894 OH2        -30.8800   -13.7640    54.3010 O.3    8328  TIP8178    -0.4105
 43895 H1         -29.9510   -13.5510    54.2090 H      8328  TIP8178     0.2052
 43896 H2         -30.9240   -14.3160    55.0810 H      8328  TIP8178     0.2052
 43897 OH2         30.6690   -31.8970   -47.4230 O.3    8329  TIP8179    -0.4105
 43898 H1          30.5190   -31.0030   -47.7310 H      8329  TIP8179     0.2052
 43899 H2          30.2280   -32.4500   -48.0690 H      8329  TIP8179     0.2052
 43900 OH2         28.3150   -23.5720   -27.6120 O.3    8330  TIP8180    -0.4105
 43901 H1          29.0500   -23.4160   -27.0190 H      8330  TIP8180     0.2052
 43902 H2          27.9850   -24.4350   -27.3640 H      8330  TIP8180     0.2052
 43903 OH2          6.2810    -2.0460   -53.1130 O.3    8331  TIP8181    -0.4105
 43904 H1           6.4050    -1.4990   -52.3370 H      8331  TIP8181     0.2052
 43905 H2           6.9560    -1.7530   -53.7240 H      8331  TIP8181     0.2052
 43906 OH2        -31.9790   -22.7820    34.7820 O.3    8332  TIP8182    -0.4105
 43907 H1         -31.0310   -22.6990    34.8800 H      8332  TIP8182     0.2052
 43908 H2         -32.1120   -22.9290    33.8450 H      8332  TIP8182     0.2052
 43909 OH2         26.9320    18.9820   -45.4890 O.3    8333  TIP8183    -0.4105
 43910 H1          26.0880    18.5500   -45.3650 H      8333  TIP8183     0.2052
 43911 H2          26.9840    19.1410   -46.4320 H      8333  TIP8183     0.2052
 43912 OH2        -31.0430    18.2240    49.1860 O.3    8334  TIP8184    -0.4105
 43913 H1         -30.7330    17.4460    48.7230 H      8334  TIP8184     0.2052
 43914 H2         -30.3600    18.8780    49.0410 H      8334  TIP8184     0.2052
 43915 OH2         -2.6910    20.4070    35.0260 O.3    8335  TIP8185    -0.4105
 43916 H1          -2.1100    20.8340    35.6550 H      8335  TIP8185     0.2052
 43917 H2          -3.0550    21.1260    34.5090 H      8335  TIP8185     0.2052
 43918 OH2         30.3240   -21.5000    36.8240 O.3    8336  TIP8186    -0.4105
 43919 H1          29.8830   -21.3270    35.9920 H      8336  TIP8186     0.2052
 43920 H2          31.1870   -21.8320    36.5740 H      8336  TIP8186     0.2052
 43921 OH2        -18.3410    -4.3690   -31.7310 O.3    8337  TIP8187    -0.4105
 43922 H1         -18.6670    -4.3420   -30.8320 H      8337  TIP8187     0.2052
 43923 H2         -17.5850    -3.7820   -31.7290 H      8337  TIP8187     0.2052
 43924 OH2         23.2710   -29.1310   -42.8700 O.3    8338  TIP8188    -0.4105
 43925 H1          23.1200   -29.1590   -41.9250 H      8338  TIP8188     0.2052
 43926 H2          23.2810   -30.0500   -43.1380 H      8338  TIP8188     0.2052
 43927 OH2        -12.4970   -18.5230    54.5950 O.3    8339  TIP8189    -0.4105
 43928 H1         -12.2160   -19.3670    54.2410 H      8339  TIP8189     0.2052
 43929 H2         -13.4420   -18.6180    54.7200 H      8339  TIP8189     0.2052
 43930 OH2         20.4420    -3.3840   -29.0150 O.3    8340  TIP8190    -0.4105
 43931 H1          21.0600    -2.9090   -28.4590 H      8340  TIP8190     0.2052
 43932 H2          20.5320    -2.9760   -29.8760 H      8340  TIP8190     0.2052
 43933 OH2        -26.3010     8.8540   -43.3870 O.3    8341  TIP8191    -0.4105
 43934 H1         -26.7830     8.0320   -43.4850 H      8341  TIP8191     0.2052
 43935 H2         -26.9810     9.5250   -43.3250 H      8341  TIP8191     0.2052
 43936 OH2        -25.5950    16.4060    41.2440 O.3    8342  TIP8192    -0.4105
 43937 H1         -26.0930    17.0280    41.7730 H      8342  TIP8192     0.2052
 43938 H2         -26.0870    16.3380    40.4260 H      8342  TIP8192     0.2052
 43939 OH2         23.3250    25.0300    53.9670 O.3    8343  TIP8193    -0.4105
 43940 H1          23.0750    25.0080    53.0430 H      8343  TIP8193     0.2052
 43941 H2          23.8310    24.2280    54.0980 H      8343  TIP8193     0.2052
 43942 OH2         12.8710   -29.2780    23.1060 O.3    8344  TIP8194    -0.4105
 43943 H1          12.8320   -28.5540    22.4800 H      8344  TIP8194     0.2052
 43944 H2          12.5310   -30.0310    22.6230 H      8344  TIP8194     0.2052
 43945 OH2        -30.3030     8.9570   -51.8110 O.3    8345  TIP8195    -0.4105
 43946 H1         -30.5400     8.6870   -50.9230 H      8345  TIP8195     0.2052
 43947 H2         -30.8890     8.4580   -52.3780 H      8345  TIP8195     0.2052
 43948 OH2        -17.5550     5.9720   -33.8980 O.3    8346  TIP8196    -0.4105
 43949 H1         -17.1230     6.4040   -33.1610 H      8346  TIP8196     0.2052
 43950 H2         -16.9640     6.1110   -34.6380 H      8346  TIP8196     0.2052
 43951 OH2          0.2670    15.2790   -36.9050 O.3    8347  TIP8197    -0.4105
 43952 H1          -0.3410    15.3630   -36.1700 H      8347  TIP8197     0.2052
 43953 H2           0.9080    14.6300   -36.6140 H      8347  TIP8197     0.2052
 43954 OH2        -14.3610   -19.8940   -33.0960 O.3    8348  TIP8198    -0.4105
 43955 H1         -15.1710   -19.6880   -33.5620 H      8348  TIP8198     0.2052
 43956 H2         -13.6790   -19.4310   -33.5830 H      8348  TIP8198     0.2052
 43957 OH2         -8.4120   -15.6590    48.9230 O.3    8349  TIP8199    -0.4105
 43958 H1          -9.2660   -15.8590    49.3070 H      8349  TIP8199     0.2052
 43959 H2          -7.7840   -16.1150    49.4840 H      8349  TIP8199     0.2052
 43960 OH2         11.7170   -20.6250   -35.7000 O.3    8350  TIP8200    -0.4105
 43961 H1          11.4580   -21.3850   -36.2210 H      8350  TIP8200     0.2052
 43962 H2          12.2230   -20.9920   -34.9750 H      8350  TIP8200     0.2052
 43963 OH2         28.8320   -16.0120   -49.4770 O.3    8351  TIP8201    -0.4105
 43964 H1          29.3980   -15.2400   -49.4460 H      8351  TIP8201     0.2052
 43965 H2          27.9500   -15.6580   -49.5910 H      8351  TIP8201     0.2052
 43966 OH2        -24.5600    29.4520    41.2710 O.3    8352  TIP8202    -0.4105
 43967 H1         -23.7810    29.0780    40.8590 H      8352  TIP8202     0.2052
 43968 H2         -24.3560    29.4590    42.2060 H      8352  TIP8202     0.2052
 43969 OH2          3.6610   -26.4510    52.3030 O.3    8353  TIP8203    -0.4105
 43970 H1           4.2880   -27.1690    52.3850 H      8353  TIP8203     0.2052
 43971 H2           3.7000   -26.2010    51.3800 H      8353  TIP8203     0.2052
 43972 OH2         23.9970   -11.7880    36.3080 O.3    8354  TIP8204    -0.4105
 43973 H1          24.1680   -12.0860    37.2010 H      8354  TIP8204     0.2052
 43974 H2          23.6720   -12.5660    35.8540 H      8354  TIP8204     0.2052
 43975 OH2        -19.5630    -7.5120    53.7750 O.3    8355  TIP8205    -0.4105
 43976 H1         -19.2070    -8.3870    53.6190 H      8355  TIP8205     0.2052
 43977 H2         -19.1390    -6.9590    53.1200 H      8355  TIP8205     0.2052
 43978 OH2        -15.4240   -31.3810   -44.1050 O.3    8356  TIP8206    -0.4105
 43979 H1         -14.6250   -31.3690   -44.6320 H      8356  TIP8206     0.2052
 43980 H2         -16.1290   -31.4970   -44.7420 H      8356  TIP8206     0.2052
 43981 OH2         19.5750    -8.1430    53.3700 O.3    8357  TIP8207    -0.4105
 43982 H1          19.8970    -7.2850    53.6450 H      8357  TIP8207     0.2052
 43983 H2          18.9390    -8.3880    54.0430 H      8357  TIP8207     0.2052
 43984 OH2          3.0870    -4.1840   -49.4310 O.3    8358  TIP8208    -0.4105
 43985 H1           3.4420    -4.6130   -50.2100 H      8358  TIP8208     0.2052
 43986 H2           3.8440    -3.7650   -49.0220 H      8358  TIP8208     0.2052
 43987 OH2         13.5790    23.7600   -44.1680 O.3    8359  TIP8209    -0.4105
 43988 H1          12.7430    24.1890   -43.9850 H      8359  TIP8209     0.2052
 43989 H2          13.3670    22.8270   -44.2040 H      8359  TIP8209     0.2052
 43990 OH2         20.6100    18.2120    31.8360 O.3    8360  TIP8210    -0.4105
 43991 H1          19.8070    17.7110    31.9790 H      8360  TIP8210     0.2052
 43992 H2          20.3100    19.0600    31.5110 H      8360  TIP8210     0.2052
 43993 OH2         29.5390    12.0110   -47.0320 O.3    8361  TIP8211    -0.4105
 43994 H1          29.1250    11.7770   -46.2020 H      8361  TIP8211     0.2052
 43995 H2          30.2760    11.4050   -47.1120 H      8361  TIP8211     0.2052
 43996 OH2         32.8680    17.6070   -29.4120 O.3    8362  TIP8212    -0.4105
 43997 H1          32.9490    17.6250   -28.4590 H      8362  TIP8212     0.2052
 43998 H2          33.6980    17.2390   -29.7160 H      8362  TIP8212     0.2052
 43999 OH2        -16.9300   -21.9300   -39.2960 O.3    8363  TIP8213    -0.4105
 44000 H1         -16.1830   -22.4470   -39.5970 H      8363  TIP8213     0.2052
 44001 H2         -16.6200   -21.0240   -39.3200 H      8363  TIP8213     0.2052
 44002 OH2         23.9470   -13.8530    47.4260 O.3    8364  TIP8214    -0.4105
 44003 H1          24.5680   -14.4530    47.0130 H      8364  TIP8214     0.2052
 44004 H2          23.9770   -13.0660    46.8820 H      8364  TIP8214     0.2052
 44005 OH2          4.4410    29.3380    38.3970 O.3    8365  TIP8215    -0.4105
 44006 H1           5.3120    29.6610    38.1660 H      8365  TIP8215     0.2052
 44007 H2           4.1840    28.7880    37.6570 H      8365  TIP8215     0.2052
 44008 OH2        -30.6110   -10.1120    47.1670 O.3    8366  TIP8216    -0.4105
 44009 H1         -31.0480   -10.4090    47.9650 H      8366  TIP8216     0.2052
 44010 H2         -31.2430    -9.5260    46.7510 H      8366  TIP8216     0.2052
 44011 OH2        -15.5410   -30.0740   -55.5650 O.3    8367  TIP8217    -0.4105
 44012 H1         -15.5400   -29.2570   -56.0620 H      8367  TIP8217     0.2052
 44013 H2         -16.3340   -30.5280   -55.8520 H      8367  TIP8217     0.2052
 44014 OH2         20.7450   -16.5780   -44.8560 O.3    8368  TIP8218    -0.4105
 44015 H1          20.2340   -16.7260   -45.6520 H      8368  TIP8218     0.2052
 44016 H2          20.9440   -17.4560   -44.5320 H      8368  TIP8218     0.2052
 44017 OH2          1.9210   -27.0660   -53.9860 O.3    8369  TIP8219    -0.4105
 44018 H1           2.2980   -26.6600   -53.2050 H      8369  TIP8219     0.2052
 44019 H2           2.5230   -26.8320   -54.6930 H      8369  TIP8219     0.2052
 44020 OH2         -5.1010    32.3110    30.6850 O.3    8370  TIP8220    -0.4105
 44021 H1          -5.3310    33.1000    30.1940 H      8370  TIP8220     0.2052
 44022 H2          -4.6770    32.6380    31.4780 H      8370  TIP8220     0.2052
 44023 OH2         11.5980   -25.5400    49.2560 O.3    8371  TIP8221    -0.4105
 44024 H1          11.7180   -25.5560    48.3070 H      8371  TIP8221     0.2052
 44025 H2          11.9990   -26.3540    49.5620 H      8371  TIP8221     0.2052
 44026 OH2         10.9030   -13.8020   -55.3270 O.3    8372  TIP8222    -0.4105
 44027 H1          11.4490   -13.2310   -55.8670 H      8372  TIP8222     0.2052
 44028 H2          10.7470   -14.5730   -55.8730 H      8372  TIP8222     0.2052
 44029 OH2         -0.1840    -4.8290   -36.7130 O.3    8373  TIP8223    -0.4105
 44030 H1          -0.9510    -4.2840   -36.8880 H      8373  TIP8223     0.2052
 44031 H2          -0.0030    -5.2640   -37.5460 H      8373  TIP8223     0.2052
 44032 OH2          4.9780   -12.6130    37.6580 O.3    8374  TIP8224    -0.4105
 44033 H1           4.3030   -13.2890    37.6130 H      8374  TIP8224     0.2052
 44034 H2           4.9990   -12.2340    36.7790 H      8374  TIP8224     0.2052
 44035 OH2         -6.3330    17.0040    21.9240 O.3    8375  TIP8225    -0.4105
 44036 H1          -6.6450    16.8800    21.0270 H      8375  TIP8225     0.2052
 44037 H2          -6.1800    17.9460    21.9970 H      8375  TIP8225     0.2052
 44038 OH2        -10.8010    24.0800   -21.4580 O.3    8376  TIP8226    -0.4105
 44039 H1         -11.7470    23.9640   -21.5510 H      8376  TIP8226     0.2052
 44040 H2         -10.5980    24.8420   -22.0010 H      8376  TIP8226     0.2052
 44041 OH2          6.2140     6.3660   -24.3180 O.3    8377  TIP8227    -0.4105
 44042 H1           5.6440     5.6640   -24.0050 H      8377  TIP8227     0.2052
 44043 H2           5.6270     7.1100   -24.4550 H      8377  TIP8227     0.2052
 44044 OH2        -13.7470   -17.6580   -48.3120 O.3    8378  TIP8228    -0.4105
 44045 H1         -13.7030   -17.6810   -47.3560 H      8378  TIP8228     0.2052
 44046 H2         -14.6140   -18.0040   -48.5210 H      8378  TIP8228     0.2052
 44047 OH2          5.2380    -0.3780    51.5300 O.3    8379  TIP8229    -0.4105
 44048 H1           6.0060    -0.7980    51.9170 H      8379  TIP8229     0.2052
 44049 H2           5.5400     0.4980    51.2900 H      8379  TIP8229     0.2052
 44050 OH2         21.7670   -12.4690    28.9620 O.3    8380  TIP8230    -0.4105
 44051 H1          21.9770   -11.8420    29.6530 H      8380  TIP8230     0.2052
 44052 H2          22.0400   -12.0360    28.1530 H      8380  TIP8230     0.2052
 44053 OH2         16.5720    13.2510    30.1850 O.3    8381  TIP8231    -0.4105
 44054 H1          16.3690    12.5590    29.5560 H      8381  TIP8231     0.2052
 44055 H2          15.9890    13.0810    30.9250 H      8381  TIP8231     0.2052
 44056 OH2        -30.0340    -6.6830   -24.6640 O.3    8382  TIP8232    -0.4105
 44057 H1         -29.4390    -7.1700   -24.0930 H      8382  TIP8232     0.2052
 44058 H2         -30.1650    -5.8470   -24.2180 H      8382  TIP8232     0.2052
 44059 OH2        -32.1800    -4.9650   -21.3530 O.3    8383  TIP8233    -0.4105
 44060 H1         -31.4900    -4.3070   -21.2710 H      8383  TIP8233     0.2052
 44061 H2         -32.8420    -4.7000   -20.7150 H      8383  TIP8233     0.2052
 44062 OH2        -18.3300   -18.4270   -44.3510 O.3    8384  TIP8234    -0.4105
 44063 H1         -19.2630   -18.6290   -44.4200 H      8384  TIP8234     0.2052
 44064 H2         -18.0360   -18.9080   -43.5780 H      8384  TIP8234     0.2052
 44065 OH2        -23.6470   -13.1810   -37.1690 O.3    8385  TIP8235    -0.4105
 44066 H1         -23.7460   -13.2340   -38.1200 H      8385  TIP8235     0.2052
 44067 H2         -24.5430   -13.1890   -36.8340 H      8385  TIP8235     0.2052
 44068 OH2         27.3520    20.1220   -41.7920 O.3    8386  TIP8236    -0.4105
 44069 H1          28.0570    20.6410   -42.1800 H      8386  TIP8236     0.2052
 44070 H2          26.6190    20.7320   -41.7170 H      8386  TIP8236     0.2052
 44071 OH2        -10.7850    29.8600    31.3990 O.3    8387  TIP8237    -0.4105
 44072 H1         -11.0210    29.0100    31.7690 H      8387  TIP8237     0.2052
 44073 H2          -9.8870    29.7470    31.0890 H      8387  TIP8237     0.2052
 44074 OH2        -12.5130   -28.6490    54.2780 O.3    8388  TIP8238    -0.4105
 44075 H1         -11.9890   -28.9570    53.5390 H      8388  TIP8238     0.2052
 44076 H2         -12.2030   -29.1640    55.0230 H      8388  TIP8238     0.2052
 44077 OH2        -30.8470   -20.5400    42.5320 O.3    8389  TIP8239    -0.4105
 44078 H1         -30.0170   -20.0790    42.6550 H      8389  TIP8239     0.2052
 44079 H2         -31.2340   -20.5760    43.4070 H      8389  TIP8239     0.2052
 44080 OH2         25.4100     9.4140    54.0860 O.3    8390  TIP8240    -0.4105
 44081 H1          25.5650     9.9250    54.8800 H      8390  TIP8240     0.2052
 44082 H2          25.3790     8.5060    54.3870 H      8390  TIP8240     0.2052
 44083 OH2        -24.2800   -12.3220   -39.8870 O.3    8391  TIP8241    -0.4105
 44084 H1         -25.1290   -12.0450   -40.2300 H      8391  TIP8241     0.2052
 44085 H2         -23.6400   -11.8830   -40.4480 H      8391  TIP8241     0.2052
 44086 OH2         -8.2910    31.0690   -33.0650 O.3    8392  TIP8242    -0.4105
 44087 H1          -8.5380    31.2940   -33.9620 H      8392  TIP8242     0.2052
 44088 H2          -7.6260    31.7160   -32.8290 H      8392  TIP8242     0.2052
 44089 OH2         -7.3860    18.8890   -39.3000 O.3    8393  TIP8243    -0.4105
 44090 H1          -6.7230    19.5790   -39.3320 H      8393  TIP8243     0.2052
 44091 H2          -7.6670    18.7840   -40.2090 H      8393  TIP8243     0.2052
 44092 OH2         18.8900     7.7280   -33.4770 O.3    8394  TIP8244    -0.4105
 44093 H1          18.5050     8.0850   -34.2780 H      8394  TIP8244     0.2052
 44094 H2          18.6150     6.8110   -33.4670 H      8394  TIP8244     0.2052
 44095 OH2        -19.9080   -25.4970   -34.3950 O.3    8395  TIP8245    -0.4105
 44096 H1         -20.8000   -25.1980   -34.5740 H      8395  TIP8245     0.2052
 44097 H2         -19.4530   -25.4110   -35.2330 H      8395  TIP8245     0.2052
 44098 OH2         17.7640    10.3140   -33.0090 O.3    8396  TIP8246    -0.4105
 44099 H1          17.2770     9.9090   -33.7280 H      8396  TIP8246     0.2052
 44100 H2          18.3570     9.6270   -32.7040 H      8396  TIP8246     0.2052
 44101 OH2         23.6670     3.6500   -55.3080 O.3    8397  TIP8247    -0.4105
 44102 H1          24.6190     3.5470   -55.2890 H      8397  TIP8247     0.2052
 44103 H2          23.4650     4.1570   -54.5210 H      8397  TIP8247     0.2052
 44104 OH2         -0.9070   -27.6620    23.3280 O.3    8398  TIP8248    -0.4105
 44105 H1          -1.3350   -27.9660    22.5280 H      8398  TIP8248     0.2052
 44106 H2          -0.5030   -26.8290    23.0820 H      8398  TIP8248     0.2052
 44107 OH2        -15.3250    21.5800   -53.1870 O.3    8399  TIP8249    -0.4105
 44108 H1         -16.2640    21.6490   -53.3620 H      8399  TIP8249     0.2052
 44109 H2         -15.2690    21.3630   -52.2570 H      8399  TIP8249     0.2052
 44110 OH2        -25.8760   -22.1790    32.9230 O.3    8400  TIP8250    -0.4105
 44111 H1         -24.9450   -22.4010    32.9500 H      8400  TIP8250     0.2052
 44112 H2         -25.9210   -21.2890    33.2730 H      8400  TIP8250     0.2052
 44113 OH2         32.2540    30.9780    29.4070 O.3    8401  TIP8251    -0.4105
 44114 H1          32.7970    31.4720    30.0220 H      8401  TIP8251     0.2052
 44115 H2          32.8110    30.2510    29.1260 H      8401  TIP8251     0.2052
 44116 OH2        -16.5320    30.4810   -55.3470 O.3    8402  TIP8252    -0.4105
 44117 H1         -16.8040    29.8250   -54.7050 H      8402  TIP8252     0.2052
 44118 H2         -17.1580    30.3880   -56.0650 H      8402  TIP8252     0.2052
 44119 OH2         -0.2660   -12.1070   -30.3540 O.3    8403  TIP8253    -0.4105
 44120 H1          -1.0360   -12.2430   -30.9060 H      8403  TIP8253     0.2052
 44121 H2          -0.3540   -11.2090   -30.0360 H      8403  TIP8253     0.2052
 44122 OH2         -0.1220   -10.9210    23.0950 O.3    8404  TIP8254    -0.4105
 44123 H1          -0.5520   -10.1720    22.6820 H      8404  TIP8254     0.2052
 44124 H2          -0.2160   -11.6310    22.4600 H      8404  TIP8254     0.2052
 44125 OH2        -17.9380    -9.8290    45.3720 O.3    8405  TIP8255    -0.4105
 44126 H1         -18.5300   -10.0500    44.6540 H      8405  TIP8255     0.2052
 44127 H2         -17.3570    -9.1610    45.0090 H      8405  TIP8255     0.2052
 44128 OH2         -1.4160    12.5210   -50.8760 O.3    8406  TIP8256    -0.4105
 44129 H1          -0.6750    11.9500   -50.6740 H      8406  TIP8256     0.2052
 44130 H2          -1.9640    12.0040   -51.4660 H      8406  TIP8256     0.2052
 44131 OH2         -7.7140    -5.5730   -45.7750 O.3    8407  TIP8257    -0.4105
 44132 H1          -7.3130    -6.3730   -46.1140 H      8407  TIP8257     0.2052
 44133 H2          -8.5630    -5.8550   -45.4350 H      8407  TIP8257     0.2052
 44134 OH2        -26.0740    -2.4680   -39.8080 O.3    8408  TIP8258    -0.4105
 44135 H1         -25.3420    -2.4400   -39.1920 H      8408  TIP8258     0.2052
 44136 H2         -26.7000    -3.0720   -39.4080 H      8408  TIP8258     0.2052
 44137 OH2         15.6000    -2.1220   -44.0260 O.3    8409  TIP8259    -0.4105
 44138 H1          15.5090    -3.0720   -44.0900 H      8409  TIP8259     0.2052
 44139 H2          14.9660    -1.8650   -43.3550 H      8409  TIP8259     0.2052
 44140 OH2        -15.0990    13.4080   -40.9400 O.3    8410  TIP8260    -0.4105
 44141 H1         -15.0630    13.0570   -41.8290 H      8410  TIP8260     0.2052
 44142 H2         -15.9670    13.1630   -40.6200 H      8410  TIP8260     0.2052
 44143 OH2         -2.6300     5.1860    48.5010 O.3    8411  TIP8261    -0.4105
 44144 H1          -1.7460     5.2770    48.1460 H      8411  TIP8261     0.2052
 44145 H2          -2.6130     5.6840    49.3180 H      8411  TIP8261     0.2052
 44146 OH2          3.6380   -11.3180   -50.3650 O.3    8412  TIP8262    -0.4105
 44147 H1           3.0550   -11.2610   -51.1220 H      8412  TIP8262     0.2052
 44148 H2           4.2700   -10.6110   -50.4940 H      8412  TIP8262     0.2052
 44149 OH2         25.9610    -2.6060   -38.9530 O.3    8413  TIP8263    -0.4105
 44150 H1          26.8330    -2.2150   -39.0000 H      8413  TIP8263     0.2052
 44151 H2          26.0990    -3.5290   -39.1680 H      8413  TIP8263     0.2052
 44152 OH2         12.3370   -25.8130   -42.6560 O.3    8414  TIP8264    -0.4105
 44153 H1          12.3880   -26.5530   -43.2610 H      8414  TIP8264     0.2052
 44154 H2          12.7300   -25.0830   -43.1350 H      8414  TIP8264     0.2052
 44155 OH2         31.1620    18.0300   -19.4800 O.3    8415  TIP8265    -0.4105
 44156 H1          30.8460    18.7900   -19.9680 H      8415  TIP8265     0.2052
 44157 H2          31.6780    18.4020   -18.7650 H      8415  TIP8265     0.2052
 44158 OH2         28.7480    -7.8730   -33.5920 O.3    8416  TIP8266    -0.4105
 44159 H1          28.7130    -8.7920   -33.8560 H      8416  TIP8266     0.2052
 44160 H2          29.6520    -7.7400   -33.3070 H      8416  TIP8266     0.2052
 44161 OH2          4.3540    18.2040   -34.1240 O.3    8417  TIP8267    -0.4105
 44162 H1           3.8750    18.3390   -33.3070 H      8417  TIP8267     0.2052
 44163 H2           3.7140    18.3850   -34.8110 H      8417  TIP8267     0.2052
 44164 OH2         13.2820   -16.5660    34.8850 O.3    8418  TIP8268    -0.4105
 44165 H1          12.4720   -16.4030    35.3690 H      8418  TIP8268     0.2052
 44166 H2          13.1310   -16.1710    34.0250 H      8418  TIP8268     0.2052
 44167 OH2         18.1700    26.0810   -19.4250 O.3    8419  TIP8269    -0.4105
 44168 H1          17.9050    25.1780   -19.2480 H      8419  TIP8269     0.2052
 44169 H2          18.4580    26.0730   -20.3370 H      8419  TIP8269     0.2052
 44170 OH2         -4.4970    24.9560    38.4600 O.3    8420  TIP8270    -0.4105
 44171 H1          -4.6220    24.4310    39.2510 H      8420  TIP8270     0.2052
 44172 H2          -5.2520    24.7450    37.9100 H      8420  TIP8270     0.2052
 44173 OH2         13.2470    -7.6220   -38.3600 O.3    8421  TIP8271    -0.4105
 44174 H1          14.0210    -8.1850   -38.3630 H      8421  TIP8271     0.2052
 44175 H2          13.4670    -6.9080   -38.9580 H      8421  TIP8271     0.2052
 44176 OH2         -8.8990    26.3220    37.7870 O.3    8422  TIP8272    -0.4105
 44177 H1          -9.3310    27.1660    37.6540 H      8422  TIP8272     0.2052
 44178 H2          -9.6180    25.6950    37.8690 H      8422  TIP8272     0.2052
 44179 OH2          1.9300   -15.5810   -34.4170 O.3    8423  TIP8273    -0.4105
 44180 H1           1.9250   -14.9370   -35.1250 H      8423  TIP8273     0.2052
 44181 H2           1.5450   -15.1200   -33.6710 H      8423  TIP8273     0.2052
 44182 OH2        -14.7390     3.2600   -53.2960 O.3    8424  TIP8274    -0.4105
 44183 H1         -14.3840     4.0180   -53.7610 H      8424  TIP8274     0.2052
 44184 H2         -14.0700     2.5830   -53.3970 H      8424  TIP8274     0.2052
 44185 OH2          3.5550    -0.5150    33.9900 O.3    8425  TIP8275    -0.4105
 44186 H1           4.0150    -1.1920    34.4860 H      8425  TIP8275     0.2052
 44187 H2           4.0460     0.2880    34.1660 H      8425  TIP8275     0.2052
 44188 OH2         28.3560     8.1020    29.1490 O.3    8426  TIP8276    -0.4105
 44189 H1          28.7600     8.9690    29.1730 H      8426  TIP8276     0.2052
 44190 H2          27.4270     8.2650    29.3110 H      8426  TIP8276     0.2052
 44191 OH2          0.9230    -1.7740    37.7030 O.3    8427  TIP8277    -0.4105
 44192 H1           0.9430    -2.0740    36.7940 H      8427  TIP8277     0.2052
 44193 H2           0.6730    -2.5490    38.2060 H      8427  TIP8277     0.2052
 44194 OH2        -26.9520     3.5930   -34.2010 O.3    8428  TIP8278    -0.4105
 44195 H1         -27.4350     4.3980   -34.3870 H      8428  TIP8278     0.2052
 44196 H2         -26.8430     3.1760   -35.0560 H      8428  TIP8278     0.2052
 44197 OH2         13.0580    -3.4720    54.2390 O.3    8429  TIP8279    -0.4105
 44198 H1          12.3920    -3.7230    53.5990 H      8429  TIP8279     0.2052
 44199 H2          12.9080    -2.5390    54.3890 H      8429  TIP8279     0.2052
 44200 OH2        -32.9820     6.2890   -18.8900 O.3    8430  TIP8280    -0.4105
 44201 H1         -32.7680     5.4470   -19.2930 H      8430  TIP8280     0.2052
 44202 H2         -32.8530     6.9300   -19.5890 H      8430  TIP8280     0.2052
 44203 OH2         -2.9020   -27.1630   -51.5360 O.3    8431  TIP8281    -0.4105
 44204 H1          -2.2330   -26.6780   -52.0190 H      8431  TIP8281     0.2052
 44205 H2          -2.6360   -27.0890   -50.6190 H      8431  TIP8281     0.2052
 44206 OH2        -10.6730   -32.1830    34.3690 O.3    8432  TIP8282    -0.4105
 44207 H1         -11.6110   -31.9940    34.3990 H      8432  TIP8282     0.2052
 44208 H2         -10.6220   -33.1070    34.1240 H      8432  TIP8282     0.2052
 44209 OH2         -9.9090    31.1810    16.0440 O.3    8433  TIP8283    -0.4105
 44210 H1         -10.4930    30.4490    16.2430 H      8433  TIP8283     0.2052
 44211 H2         -10.0960    31.8280    16.7230 H      8433  TIP8283     0.2052
 44212 OH2          6.2260    -4.7120    40.5820 O.3    8434  TIP8284    -0.4105
 44213 H1           6.1510    -3.7690    40.4360 H      8434  TIP8284     0.2052
 44214 H2           5.3530    -4.9810    40.8660 H      8434  TIP8284     0.2052
 44215 OH2         -7.0870    16.5210    39.3070 O.3    8435  TIP8285    -0.4105
 44216 H1          -7.8830    16.5950    39.8330 H      8435  TIP8285     0.2052
 44217 H2          -7.3930    16.5570    38.4010 H      8435  TIP8285     0.2052
 44218 OH2        -17.3750    -9.9580    30.1460 O.3    8436  TIP8286    -0.4105
 44219 H1         -18.1870   -10.4590    30.2240 H      8436  TIP8286     0.2052
 44220 H2         -16.9440   -10.0670    30.9930 H      8436  TIP8286     0.2052
 44221 OH2          1.8890   -10.4050    52.5500 O.3    8437  TIP8287    -0.4105
 44222 H1           1.5940    -9.4990    52.4570 H      8437  TIP8287     0.2052
 44223 H2           2.8410   -10.3580    52.4680 H      8437  TIP8287     0.2052
 44224 OH2        -26.4350   -10.4570    35.8010 O.3    8438  TIP8288    -0.4105
 44225 H1         -27.3750   -10.3190    35.9170 H      8438  TIP8288     0.2052
 44226 H2         -26.1790   -11.0020    36.5460 H      8438  TIP8288     0.2052
 44227 OH2         27.5870   -19.4250   -52.5120 O.3    8439  TIP8289    -0.4105
 44228 H1          27.0560   -20.2190   -52.4560 H      8439  TIP8289     0.2052
 44229 H2          27.0010   -18.7700   -52.8910 H      8439  TIP8289     0.2052
 44230 OH2        -20.4650    30.8170    27.8770 O.3    8440  TIP8290    -0.4105
 44231 H1         -20.7300    29.9450    28.1710 H      8440  TIP8290     0.2052
 44232 H2         -20.8710    30.9140    27.0160 H      8440  TIP8290     0.2052
 44233 OH2        -15.4390    16.5400   -32.6930 O.3    8441  TIP8291    -0.4105
 44234 H1         -14.6970    16.0620   -33.0640 H      8441  TIP8291     0.2052
 44235 H2         -16.1660    16.3540   -33.2870 H      8441  TIP8291     0.2052
 44236 OH2          8.4700    29.0040   -24.7810 O.3    8442  TIP8292    -0.4105
 44237 H1           7.6050    29.3520   -24.9950 H      8442  TIP8292     0.2052
 44238 H2           8.2930    28.2420   -24.2290 H      8442  TIP8292     0.2052
 44239 OH2        -11.6090   -10.0700   -38.1330 O.3    8443  TIP8293    -0.4105
 44240 H1         -10.6650    -9.9120   -38.1440 H      8443  TIP8293     0.2052
 44241 H2         -11.9790    -9.2840   -37.7310 H      8443  TIP8293     0.2052
 44242 OH2         25.6170    -8.6700   -31.2400 O.3    8444  TIP8294    -0.4105
 44243 H1          26.3970    -8.5750   -31.7870 H      8444  TIP8294     0.2052
 44244 H2          25.0420    -7.9560   -31.5160 H      8444  TIP8294     0.2052
 44245 OH2         25.6360   -14.8310   -51.7500 O.3    8445  TIP8295    -0.4105
 44246 H1          26.0690   -15.0440   -50.9230 H      8445  TIP8295     0.2052
 44247 H2          25.6190   -13.8740   -51.7720 H      8445  TIP8295     0.2052
 44248 OH2         24.2760    22.2590   -23.3150 O.3    8446  TIP8296    -0.4105
 44249 H1          24.0470    21.4880   -23.8340 H      8446  TIP8296     0.2052
 44250 H2          24.9480    21.9490   -22.7090 H      8446  TIP8296     0.2052
 44251 OH2        -25.0350    -7.6740   -32.6470 O.3    8447  TIP8297    -0.4105
 44252 H1         -25.5890    -7.0010   -33.0430 H      8447  TIP8297     0.2052
 44253 H2         -24.2330    -7.2110   -32.4030 H      8447  TIP8297     0.2052
 44254 OH2        -12.1010    -5.9800    37.0840 O.3    8448  TIP8298    -0.4105
 44255 H1         -12.9300    -5.7490    37.5020 H      8448  TIP8298     0.2052
 44256 H2         -12.2460    -5.8120    36.1530 H      8448  TIP8298     0.2052
 44257 OH2          0.6170     9.0380    36.0230 O.3    8449  TIP8299    -0.4105
 44258 H1           0.8250     8.1970    36.4290 H      8449  TIP8299     0.2052
 44259 H2           1.4590     9.4900    35.9640 H      8449  TIP8299     0.2052
 44260 OH2         27.1970    18.0230   -39.9620 O.3    8450  TIP8300    -0.4105
 44261 H1          27.4740    18.7800   -40.4780 H      8450  TIP8300     0.2052
 44262 H2          28.0120    17.6560   -39.6180 H      8450  TIP8300     0.2052
 44263 OH2        -12.1570   -23.4930   -41.1910 O.3    8451  TIP8301    -0.4105
 44264 H1         -11.5290   -23.9030   -40.5960 H      8451  TIP8301     0.2052
 44265 H2         -11.6250   -23.1840   -41.9240 H      8451  TIP8301     0.2052
 44266 OH2         11.0320   -25.2640    15.9840 O.3    8452  TIP8302    -0.4105
 44267 H1          11.2120   -24.5230    15.4060 H      8452  TIP8302     0.2052
 44268 H2          11.2250   -24.9350    16.8620 H      8452  TIP8302     0.2052
 44269 OH2         -3.9250   -32.7510   -28.5270 O.3    8453  TIP8303    -0.4105
 44270 H1          -4.8470   -32.5780   -28.3340 H      8453  TIP8303     0.2052
 44271 H2          -3.4970   -31.9000   -28.4360 H      8453  TIP8303     0.2052
 44272 OH2         -0.3150   -19.2260    29.7620 O.3    8454  TIP8304    -0.4105
 44273 H1          -0.0210   -19.6950    28.9820 H      8454  TIP8304     0.2052
 44274 H2           0.1150   -19.6760    30.4890 H      8454  TIP8304     0.2052
 44275 OH2          7.9560     6.5410   -26.3270 O.3    8455  TIP8305    -0.4105
 44276 H1           7.4010     6.7300   -25.5700 H      8455  TIP8305     0.2052
 44277 H2           7.9290     5.5870   -26.4120 H      8455  TIP8305     0.2052
 44278 OH2         -0.6450    22.3810   -45.8890 O.3    8456  TIP8306    -0.4105
 44279 H1          -0.6860    22.7300   -46.7790 H      8456  TIP8306     0.2052
 44280 H2          -1.3930    22.7760   -45.4410 H      8456  TIP8306     0.2052
 44281 OH2        -26.8120    -6.6150    35.9340 O.3    8457  TIP8307    -0.4105
 44282 H1         -27.6970    -6.9310    36.1140 H      8457  TIP8307     0.2052
 44283 H2         -26.3660    -6.6520    36.7800 H      8457  TIP8307     0.2052
 44284 OH2          0.2090     7.8660   -27.4950 O.3    8458  TIP8308    -0.4105
 44285 H1          -0.4420     7.7660   -28.1890 H      8458  TIP8308     0.2052
 44286 H2           1.0460     7.9220   -27.9570 H      8458  TIP8308     0.2052
 44287 OH2         -4.5640   -18.2170   -50.0010 O.3    8459  TIP8309    -0.4105
 44288 H1          -3.7880   -18.5430   -50.4570 H      8459  TIP8309     0.2052
 44289 H2          -4.4110   -17.2770   -49.9100 H      8459  TIP8309     0.2052
 44290 OH2        -14.9700   -12.9370   -16.1550 O.3    8460  TIP8310    -0.4105
 44291 H1         -15.8140   -12.4860   -16.1440 H      8460  TIP8310     0.2052
 44292 H2         -14.3450   -12.2840   -15.8400 H      8460  TIP8310     0.2052
 44293 OH2        -20.3210   -13.7870   -25.3780 O.3    8461  TIP8311    -0.4105
 44294 H1         -21.1880   -13.8850   -24.9850 H      8461  TIP8311     0.2052
 44295 H2         -20.1250   -12.8540   -25.2950 H      8461  TIP8311     0.2052
 44296 OH2        -11.4900   -15.2660   -26.2600 O.3    8462  TIP8312    -0.4105
 44297 H1         -10.6660   -14.7800   -26.2060 H      8462  TIP8312     0.2052
 44298 H2         -11.8100   -15.2940   -25.3580 H      8462  TIP8312     0.2052
 44299 OH2         22.9830   -30.7900    23.9600 O.3    8463  TIP8313    -0.4105
 44300 H1          23.3130   -29.9580    23.6190 H      8463  TIP8313     0.2052
 44301 H2          22.5290   -31.1900    23.2190 H      8463  TIP8313     0.2052
 44302 OH2         31.3270     8.7510   -37.7210 O.3    8464  TIP8314    -0.4105
 44303 H1          31.2570     8.1230   -37.0010 H      8464  TIP8314     0.2052
 44304 H2          30.6850     8.4500   -38.3640 H      8464  TIP8314     0.2052
 44305 OH2        -22.8880   -20.0890   -55.1170 O.3    8465  TIP8315    -0.4105
 44306 H1         -23.0360   -20.0960   -56.0620 H      8465  TIP8315     0.2052
 44307 H2         -22.0150   -20.4660   -55.0080 H      8465  TIP8315     0.2052
 44308 OH2         22.5920   -16.2320   -49.6990 O.3    8466  TIP8316    -0.4105
 44309 H1          22.9450   -16.0710   -48.8240 H      8466  TIP8316     0.2052
 44310 H2          22.2500   -15.3830   -49.9790 H      8466  TIP8316     0.2052
 44311 OH2         15.9630   -30.0350    50.2510 O.3    8467  TIP8317    -0.4105
 44312 H1          15.5270   -29.1930    50.3850 H      8467  TIP8317     0.2052
 44313 H2          16.7830   -29.8130    49.8110 H      8467  TIP8317     0.2052
 44314 OH2         23.4200   -22.5910    46.6640 O.3    8468  TIP8318    -0.4105
 44315 H1          22.6170   -22.7850    46.1790 H      8468  TIP8318     0.2052
 44316 H2          23.1410   -22.5440    47.5790 H      8468  TIP8318     0.2052
 44317 OH2         22.6540    -6.9930   -44.8480 O.3    8469  TIP8319    -0.4105
 44318 H1          23.2800    -7.6530   -45.1470 H      8469  TIP8319     0.2052
 44319 H2          21.7970    -7.3910   -44.9960 H      8469  TIP8319     0.2052
 44320 OH2         26.2070   -10.7570   -15.4250 O.3    8470  TIP8320    -0.4105
 44321 H1          26.7810   -10.1390   -14.9710 H      8470  TIP8320     0.2052
 44322 H2          26.7810   -11.4820   -15.6700 H      8470  TIP8320     0.2052
 44323 OH2        -12.9010     3.9670   -28.4510 O.3    8471  TIP8321    -0.4105
 44324 H1         -12.5180     3.1030   -28.6050 H      8471  TIP8321     0.2052
 44325 H2         -12.1520     4.5640   -28.4500 H      8471  TIP8321     0.2052
 44326 OH2         23.5390    15.4590    48.2250 O.3    8472  TIP8322    -0.4105
 44327 H1          22.7190    15.9490    48.1740 H      8472  TIP8322     0.2052
 44328 H2          23.3900    14.6840    47.6830 H      8472  TIP8322     0.2052
 44329 OH2         10.4440    14.6600   -47.2390 O.3    8473  TIP8323    -0.4105
 44330 H1           9.6380    14.9310   -46.8000 H      8473  TIP8323     0.2052
 44331 H2          10.6260    13.7870   -46.8910 H      8473  TIP8323     0.2052
 44332 OH2         10.5370   -11.8730    51.4340 O.3    8474  TIP8324    -0.4105
 44333 H1          10.7550   -11.0920    50.9260 H      8474  TIP8324     0.2052
 44334 H2           9.8620   -12.3140    50.9170 H      8474  TIP8324     0.2052
 44335 OH2         28.4930   -17.5320   -29.6840 O.3    8475  TIP8325    -0.4105
 44336 H1          28.7900   -17.9050   -30.5140 H      8475  TIP8325     0.2052
 44337 H2          27.9300   -16.8010   -29.9380 H      8475  TIP8325     0.2052
 44338 OH2         25.5260    24.8940   -37.1040 O.3    8476  TIP8326    -0.4105
 44339 H1          26.3160    25.4310   -37.1540 H      8476  TIP8326     0.2052
 44340 H2          25.4210    24.5380   -37.9860 H      8476  TIP8326     0.2052
 44341 OH2        -27.9350     9.1360   -37.8720 O.3    8477  TIP8327    -0.4105
 44342 H1         -27.1660     9.2510   -38.4310 H      8477  TIP8327     0.2052
 44343 H2         -28.2050    10.0260   -37.6480 H      8477  TIP8327     0.2052
 44344 OH2        -30.9560    24.8000    32.3220 O.3    8478  TIP8328    -0.4105
 44345 H1         -30.4240    25.4840    31.9150 H      8478  TIP8328     0.2052
 44346 H2         -31.7410    25.2560    32.6260 H      8478  TIP8328     0.2052
 44347 OH2        -29.7920    32.3870    35.7820 O.3    8479  TIP8329    -0.4105
 44348 H1         -30.6720    32.5230    35.4320 H      8479  TIP8329     0.2052
 44349 H2         -29.2880    33.1370    35.4660 H      8479  TIP8329     0.2052
 44350 OH2         29.9840    27.2510    30.8370 O.3    8480  TIP8330    -0.4105
 44351 H1          30.1430    27.4140    29.9070 H      8480  TIP8330     0.2052
 44352 H2          30.2410    28.0640    31.2700 H      8480  TIP8330     0.2052
 44353 OH2          6.9610   -13.7360    44.2140 O.3    8481  TIP8331    -0.4105
 44354 H1           6.8570   -12.9370    43.6960 H      8481  TIP8331     0.2052
 44355 H2           7.7430   -14.1550    43.8550 H      8481  TIP8331     0.2052
 44356 OH2         11.2820    -5.2000   -40.0340 O.3    8482  TIP8332    -0.4105
 44357 H1          12.0520    -5.7250   -40.2510 H      8482  TIP8332     0.2052
 44358 H2          11.6380    -4.3580   -39.7490 H      8482  TIP8332     0.2052
 44359 OH2         12.4000   -28.1990   -39.6670 O.3    8483  TIP8333    -0.4105
 44360 H1          12.7480   -28.8260   -39.0320 H      8483  TIP8333     0.2052
 44361 H2          12.6950   -28.5290   -40.5160 H      8483  TIP8333     0.2052
 44362 OH2        -18.1710   -10.4110   -20.3950 O.3    8484  TIP8334    -0.4105
 44363 H1         -19.0760   -10.2700   -20.6730 H      8484  TIP8334     0.2052
 44364 H2         -17.8500   -11.1080   -20.9680 H      8484  TIP8334     0.2052
 44365 OH2        -26.3130    -0.3390   -33.6740 O.3    8485  TIP8335    -0.4105
 44366 H1         -27.1810     0.0640   -33.6550 H      8485  TIP8335     0.2052
 44367 H2         -25.7590     0.3060   -34.1140 H      8485  TIP8335     0.2052
 44368 OH2         12.0710    11.3450    48.8580 O.3    8486  TIP8336    -0.4105
 44369 H1          12.3960    11.4150    49.7550 H      8486  TIP8336     0.2052
 44370 H2          11.1180    11.3780    48.9450 H      8486  TIP8336     0.2052
 44371 OH2         -3.7860   -24.6720   -27.4450 O.3    8487  TIP8337    -0.4105
 44372 H1          -4.4790   -25.3280   -27.3660 H      8487  TIP8337     0.2052
 44373 H2          -3.0180   -25.0870   -27.0520 H      8487  TIP8337     0.2052
 44374 OH2        -12.0030   -18.2070   -37.6770 O.3    8488  TIP8338    -0.4105
 44375 H1         -12.8930   -18.1480   -38.0250 H      8488  TIP8338     0.2052
 44376 H2         -11.4460   -17.8930   -38.3900 H      8488  TIP8338     0.2052
 44377 OH2         29.3150    12.8310    44.2190 O.3    8489  TIP8339    -0.4105
 44378 H1          28.6820    12.1140    44.1760 H      8489  TIP8339     0.2052
 44379 H2          29.0960    13.2970    45.0260 H      8489  TIP8339     0.2052
 44380 OH2         -4.5680    -4.0570    27.1580 O.3    8490  TIP8340    -0.4105
 44381 H1          -3.9200    -4.2820    26.4900 H      8490  TIP8340     0.2052
 44382 H2          -4.8840    -4.9020    27.4790 H      8490  TIP8340     0.2052
 44383 OH2        -19.2140   -30.6320   -42.6300 O.3    8491  TIP8341    -0.4105
 44384 H1         -18.6640   -31.1010   -42.0020 H      8491  TIP8341     0.2052
 44385 H2         -19.9600   -31.2140   -42.7760 H      8491  TIP8341     0.2052
 44386 OH2        -32.3200    25.5130    37.6950 O.3    8492  TIP8342    -0.4105
 44387 H1         -32.0420    24.7920    37.1290 H      8492  TIP8342     0.2052
 44388 H2         -32.9400    25.1120    38.3050 H      8492  TIP8342     0.2052
 44389 OH2        -12.7280     1.4960   -51.7790 O.3    8493  TIP8343    -0.4105
 44390 H1         -12.2870     2.2210   -52.2220 H      8493  TIP8343     0.2052
 44391 H2         -12.2730     1.4150   -50.9410 H      8493  TIP8343     0.2052
 44392 OH2          9.6570    30.6400    27.1810 O.3    8494  TIP8344    -0.4105
 44393 H1           8.7390    30.3950    27.3010 H      8494  TIP8344     0.2052
 44394 H2           9.8030    31.3400    27.8170 H      8494  TIP8344     0.2052
 44395 OH2          2.1900   -10.0250   -26.6340 O.3    8495  TIP8345    -0.4105
 44396 H1           2.2560   -10.9680   -26.7850 H      8495  TIP8345     0.2052
 44397 H2           2.8980    -9.6480   -27.1560 H      8495  TIP8345     0.2052
 44398 OH2          3.2520     6.6430    45.2280 O.3    8496  TIP8346    -0.4105
 44399 H1           2.8650     5.7750    45.1150 H      8496  TIP8346     0.2052
 44400 H2           2.8740     7.1680    44.5220 H      8496  TIP8346     0.2052
 44401 OH2         -9.4160   -10.8400    47.4270 O.3    8497  TIP8347    -0.4105
 44402 H1          -9.0750   -11.7320    47.3640 H      8497  TIP8347     0.2052
 44403 H2         -10.0000   -10.8590    48.1850 H      8497  TIP8347     0.2052
 44404 OH2         18.4760   -23.9510   -26.0730 O.3    8498  TIP8348    -0.4105
 44405 H1          17.9120   -24.1970   -25.3390 H      8498  TIP8348     0.2052
 44406 H2          17.8680   -23.7220   -26.7760 H      8498  TIP8348     0.2052
 44407 OH2        -13.0810   -27.5480    38.5260 O.3    8499  TIP8349    -0.4105
 44408 H1         -12.7710   -27.6620    39.4250 H      8499  TIP8349     0.2052
 44409 H2         -13.9130   -28.0210    38.4980 H      8499  TIP8349     0.2052
 44410 OH2         25.8940     7.6300   -29.5300 O.3    8500  TIP8350    -0.4105
 44411 H1          26.1690     7.3200   -30.3930 H      8500  TIP8350     0.2052
 44412 H2          25.5570     8.5120   -29.6880 H      8500  TIP8350     0.2052
 44413 OH2         -4.8630   -28.4090    39.4750 O.3    8501  TIP8351    -0.4105
 44414 H1          -4.6590   -28.6880    38.5830 H      8501  TIP8351     0.2052
 44415 H2          -4.4650   -29.0780    40.0330 H      8501  TIP8351     0.2052
 44416 OH2         -2.3850    30.7710   -30.8750 O.3    8502  TIP8352    -0.4105
 44417 H1          -2.4210    31.7180   -31.0160 H      8502  TIP8352     0.2052
 44418 H2          -2.2510    30.6740   -29.9330 H      8502  TIP8352     0.2052
 44419 OH2        -22.8800    26.3140   -37.1660 O.3    8503  TIP8353    -0.4105
 44420 H1         -23.0200    26.5210   -36.2420 H      8503  TIP8353     0.2052
 44421 H2         -23.2790    27.0440   -37.6390 H      8503  TIP8353     0.2052
 44422 OH2         -5.6360    12.1370    54.6740 O.3    8504  TIP8354    -0.4105
 44423 H1          -5.7680    12.1240    55.6220 H      8504  TIP8354     0.2052
 44424 H2          -5.4820    13.0590    54.4660 H      8504  TIP8354     0.2052
 44425 OH2         14.6900    -1.0170   -18.5720 O.3    8505  TIP8355    -0.4105
 44426 H1          15.0340    -0.1460   -18.3750 H      8505  TIP8355     0.2052
 44427 H2          15.3310    -1.3990   -19.1710 H      8505  TIP8355     0.2052
 44428 OH2        -12.5540   -29.1840    21.9150 O.3    8506  TIP8356    -0.4105
 44429 H1         -13.4850   -29.4020    21.8730 H      8506  TIP8356     0.2052
 44430 H2         -12.1100   -29.9580    21.5700 H      8506  TIP8356     0.2052
 44431 OH2        -29.8500    18.5270   -40.1470 O.3    8507  TIP8357    -0.4105
 44432 H1         -30.3890    18.3780   -39.3700 H      8507  TIP8357     0.2052
 44433 H2         -29.8800    17.6970   -40.6230 H      8507  TIP8357     0.2052
 44434 OH2         -7.7690    13.3340    20.1030 O.3    8508  TIP8358    -0.4105
 44435 H1          -7.3800    12.9520    20.8900 H      8508  TIP8358     0.2052
 44436 H2          -7.5630    12.7110    19.4060 H      8508  TIP8358     0.2052
 44437 OH2         24.0700     1.5420   -21.4100 O.3    8509  TIP8359    -0.4105
 44438 H1          24.2560     2.2710   -22.0010 H      8509  TIP8359     0.2052
 44439 H2          24.3340     1.8600   -20.5460 H      8509  TIP8359     0.2052
 44440 OH2        -10.4890    -0.1860   -24.8560 O.3    8510  TIP8360    -0.4105
 44441 H1          -9.5910    -0.3450   -24.5640 H      8510  TIP8360     0.2052
 44442 H2         -10.5040    -0.4920   -25.7630 H      8510  TIP8360     0.2052
 44443 OH2         26.3930   -16.5220   -43.6600 O.3    8511  TIP8361    -0.4105
 44444 H1          25.7650   -17.0660   -44.1340 H      8511  TIP8361     0.2052
 44445 H2          26.7590   -15.9410   -44.3270 H      8511  TIP8361     0.2052
 44446 OH2         11.8010    19.8480   -51.9160 O.3    8512  TIP8362    -0.4105
 44447 H1          12.0660    20.2610   -51.0940 H      8512  TIP8362     0.2052
 44448 H2          11.4580    20.5670   -52.4470 H      8512  TIP8362     0.2052
 44449 OH2         16.2400   -20.3010    32.9850 O.3    8513  TIP8363    -0.4105
 44450 H1          17.1420   -20.4990    32.7320 H      8513  TIP8363     0.2052
 44451 H2          15.7270   -20.4690    32.1950 H      8513  TIP8363     0.2052
 44452 OH2         -3.2150    10.1860   -52.7960 O.3    8514  TIP8364    -0.4105
 44453 H1          -2.4790     9.7200   -53.1930 H      8514  TIP8364     0.2052
 44454 H2          -3.6150     9.5460   -52.2080 H      8514  TIP8364     0.2052
 44455 OH2         28.4090    27.5470    53.6060 O.3    8515  TIP8365    -0.4105
 44456 H1          28.1740    28.2320    52.9800 H      8515  TIP8365     0.2052
 44457 H2          27.5920    27.0740    53.7620 H      8515  TIP8365     0.2052
 44458 OH2        -10.5980     5.8400   -20.6400 O.3    8516  TIP8366    -0.4105
 44459 H1         -11.1970     5.2120   -20.2360 H      8516  TIP8366     0.2052
 44460 H2         -10.4860     6.5240   -19.9800 H      8516  TIP8366     0.2052
 44461 OH2         -8.2370     0.8830   -50.3520 O.3    8517  TIP8367    -0.4105
 44462 H1          -7.7180     0.0790   -50.3270 H      8517  TIP8367     0.2052
 44463 H2          -7.9250     1.3920   -49.6030 H      8517  TIP8367     0.2052
 44464 OH2        -28.2940   -31.7520    34.8170 O.3    8518  TIP8368    -0.4105
 44465 H1         -28.7440   -31.9430    33.9940 H      8518  TIP8368     0.2052
 44466 H2         -27.4640   -31.3580    34.5510 H      8518  TIP8368     0.2052
 44467 OH2         -6.9430    23.9320    28.9640 O.3    8519  TIP8369    -0.4105
 44468 H1          -6.8610    23.2050    28.3470 H      8519  TIP8369     0.2052
 44469 H2          -6.6640    23.5660    29.8040 H      8519  TIP8369     0.2052
 44470 OH2          8.2270     8.7380   -12.0940 O.3    8520  TIP8370    -0.4105
 44471 H1           8.7850     8.9960   -12.8270 H      8520  TIP8370     0.2052
 44472 H2           7.4900     9.3490   -12.1260 H      8520  TIP8370     0.2052
 44473 OH2        -31.1220   -10.2540   -52.8360 O.3    8521  TIP8371    -0.4105
 44474 H1         -30.8420   -10.5230   -51.9610 H      8521  TIP8371     0.2052
 44475 H2         -30.3490    -9.8400   -53.2190 H      8521  TIP8371     0.2052
 44476 OH2        -15.0620    20.9100    39.8540 O.3    8522  TIP8372    -0.4105
 44477 H1         -15.6620    21.0130    39.1150 H      8522  TIP8372     0.2052
 44478 H2         -14.5910    21.7420    39.8980 H      8522  TIP8372     0.2052
 44479 OH2        -10.6910    -0.8560   -30.0610 O.3    8523  TIP8373    -0.4105
 44480 H1         -10.5610     0.0510   -30.3370 H      8523  TIP8373     0.2052
 44481 H2         -10.4080    -1.3780   -30.8120 H      8523  TIP8373     0.2052
 44482 OH2         22.5120   -20.3190   -39.0080 O.3    8524  TIP8374    -0.4105
 44483 H1          23.3380   -20.8010   -38.9870 H      8524  TIP8374     0.2052
 44484 H2          22.2220   -20.3000   -38.0960 H      8524  TIP8374     0.2052
 44485 OH2         32.7880   -27.1560    36.1820 O.3    8525  TIP8375    -0.4105
 44486 H1          33.5260   -26.8500    36.7090 H      8525  TIP8375     0.2052
 44487 H2          32.7830   -26.5770    35.4190 H      8525  TIP8375     0.2052
 44488 OH2         12.8260    23.2850   -23.5740 O.3    8526  TIP8376    -0.4105
 44489 H1          12.8850    24.1700   -23.9340 H      8526  TIP8376     0.2052
 44490 H2          12.7160    22.7210   -24.3390 H      8526  TIP8376     0.2052
 44491 OH2        -28.2150    15.4830   -49.7400 O.3    8527  TIP8377    -0.4105
 44492 H1         -27.4900    15.4500   -50.3650 H      8527  TIP8377     0.2052
 44493 H2         -27.8570    15.9450   -48.9820 H      8527  TIP8377     0.2052
 44494 OH2         28.6260   -10.6510    23.6600 O.3    8528  TIP8378    -0.4105
 44495 H1          28.7900   -10.6290    22.7180 H      8528  TIP8378     0.2052
 44496 H2          28.3170    -9.7690    23.8710 H      8528  TIP8378     0.2052
 44497 OH2        -23.8740    12.8820    41.6290 O.3    8529  TIP8379    -0.4105
 44498 H1         -23.9060    12.7330    42.5740 H      8529  TIP8379     0.2052
 44499 H2         -24.7840    13.0470    41.3810 H      8529  TIP8379     0.2052
 44500 OH2         -9.6070    -1.2800   -32.7400 O.3    8530  TIP8380    -0.4105
 44501 H1          -9.9190    -2.1800   -32.8320 H      8530  TIP8380     0.2052
 44502 H2          -8.8680    -1.2190   -33.3450 H      8530  TIP8380     0.2052
 44503 OH2        -29.1340    26.5330    25.1080 O.3    8531  TIP8381    -0.4105
 44504 H1         -28.4260    26.9650    24.6300 H      8531  TIP8381     0.2052
 44505 H2         -28.8910    25.6070    25.1110 H      8531  TIP8381     0.2052
 44506 OH2        -21.1450   -20.2330    24.0310 O.3    8532  TIP8382    -0.4105
 44507 H1         -21.7430   -20.1380    24.7720 H      8532  TIP8382     0.2052
 44508 H2         -21.5120   -19.6670    23.3520 H      8532  TIP8382     0.2052
 44509 OH2         16.6960   -26.2200   -29.5590 O.3    8533  TIP8383    -0.4105
 44510 H1          16.8500   -25.3900   -30.0090 H      8533  TIP8383     0.2052
 44511 H2          16.0280   -26.0180   -28.9040 H      8533  TIP8383     0.2052
 44512 OH2         -9.2770    19.5930   -30.6570 O.3    8534  TIP8384    -0.4105
 44513 H1          -8.3980    19.7970   -30.9740 H      8534  TIP8384     0.2052
 44514 H2          -9.5300    20.3580   -30.1400 H      8534  TIP8384     0.2052
 44515 OH2         14.8910   -11.7790   -23.0170 O.3    8535  TIP8385    -0.4105
 44516 H1          14.8980   -11.3260   -22.1740 H      8535  TIP8385     0.2052
 44517 H2          14.1220   -11.4320   -23.4690 H      8535  TIP8385     0.2052
 44518 OH2        -23.9610    11.0210    54.3690 O.3    8536  TIP8386    -0.4105
 44519 H1         -24.5360    11.4680    53.7480 H      8536  TIP8386     0.2052
 44520 H2         -24.5510    10.4920    54.9060 H      8536  TIP8386     0.2052
 44521 OH2        -15.9790     2.0590   -41.7180 O.3    8537  TIP8387    -0.4105
 44522 H1         -16.6900     2.4690   -42.2110 H      8537  TIP8387     0.2052
 44523 H2         -15.7450     1.2860   -42.2320 H      8537  TIP8387     0.2052
 44524 OH2         11.2620   -30.9310    28.6360 O.3    8538  TIP8388    -0.4105
 44525 H1          10.7450   -30.5890    29.3650 H      8538  TIP8388     0.2052
 44526 H2          12.0050   -30.3310    28.5660 H      8538  TIP8388     0.2052
 44527 OH2          3.1700   -23.1700    41.3750 O.3    8539  TIP8389    -0.4105
 44528 H1           2.2780   -23.4120    41.6220 H      8539  TIP8389     0.2052
 44529 H2           3.0640   -22.3970    40.8210 H      8539  TIP8389     0.2052
 44530 OH2         20.7950   -29.8920   -37.2240 O.3    8540  TIP8390    -0.4105
 44531 H1          20.7100   -30.0160   -38.1690 H      8540  TIP8390     0.2052
 44532 H2          21.0620   -28.9790   -37.1250 H      8540  TIP8390     0.2052
 44533 OH2        -26.4410   -19.8220    33.9140 O.3    8541  TIP8391    -0.4105
 44534 H1         -25.6470   -19.5330    34.3630 H      8541  TIP8391     0.2052
 44535 H2         -26.6500   -19.1070    33.3130 H      8541  TIP8391     0.2052
 44536 OH2         -4.0580     8.0060   -40.3500 O.3    8542  TIP8392    -0.4105
 44537 H1          -3.2670     7.7880   -39.8580 H      8542  TIP8392     0.2052
 44538 H2          -4.3220     7.1810   -40.7570 H      8542  TIP8392     0.2052
 44539 OH2        -22.6830    -7.9800   -40.9900 O.3    8543  TIP8393    -0.4105
 44540 H1         -22.8760    -7.3310   -41.6660 H      8543  TIP8393     0.2052
 44541 H2         -23.5170    -8.4260   -40.8410 H      8543  TIP8393     0.2052
 44542 OH2        -12.4570    -1.6140    43.1230 O.3    8544  TIP8394    -0.4105
 44543 H1         -11.6620    -1.4810    42.6080 H      8544  TIP8394     0.2052
 44544 H2         -13.0990    -1.0230    42.7310 H      8544  TIP8394     0.2052
 44545 OH2        -29.6750   -13.7330   -44.5600 O.3    8545  TIP8395    -0.4105
 44546 H1         -29.5210   -13.4140   -43.6700 H      8545  TIP8395     0.2052
 44547 H2         -29.9920   -14.6280   -44.4420 H      8545  TIP8395     0.2052
 44548 OH2        -14.1000   -21.9430   -31.1420 O.3    8546  TIP8396    -0.4105
 44549 H1         -14.8630   -22.4750   -31.3680 H      8546  TIP8396     0.2052
 44550 H2         -13.8160   -21.5640   -31.9730 H      8546  TIP8396     0.2052
 44551 OH2        -31.4290   -23.4820   -27.5800 O.3    8547  TIP8397    -0.4105
 44552 H1         -31.0430   -24.0960   -26.9550 H      8547  TIP8397     0.2052
 44553 H2         -31.3250   -22.6240   -27.1690 H      8547  TIP8397     0.2052
 44554 OH2        -23.4810    19.9350    42.0520 O.3    8548  TIP8398    -0.4105
 44555 H1         -23.2950    20.7240    42.5600 H      8548  TIP8398     0.2052
 44556 H2         -23.0330    20.0750    41.2180 H      8548  TIP8398     0.2052
 44557 OH2        -26.4630    23.7990   -26.6720 O.3    8549  TIP8399    -0.4105
 44558 H1         -25.9410    23.3460   -27.3340 H      8549  TIP8399     0.2052
 44559 H2         -26.0190    23.6080   -25.8450 H      8549  TIP8399     0.2052
 44560 OH2        -30.7130   -25.1770    29.8230 O.3    8550  TIP8400    -0.4105
 44561 H1         -30.1760   -24.7540    30.4920 H      8550  TIP8400     0.2052
 44562 H2         -30.0810   -25.5560    29.2110 H      8550  TIP8400     0.2052
 44563 OH2         -6.6710    19.6620   -31.7100 O.3    8551  TIP8401    -0.4105
 44564 H1          -6.3660    19.7340   -32.6150 H      8551  TIP8401     0.2052
 44565 H2          -6.0690    20.2130   -31.2100 H      8551  TIP8401     0.2052
 44566 OH2         26.7820    25.3420    53.1170 O.3    8552  TIP8402    -0.4105
 44567 H1          26.1160    25.4910    52.4460 H      8552  TIP8402     0.2052
 44568 H2          27.0640    24.4370    52.9790 H      8552  TIP8402     0.2052
 44569 OH2        -25.0170    23.0660   -28.9090 O.3    8553  TIP8403    -0.4105
 44570 H1         -25.6750    23.0500   -29.6040 H      8553  TIP8403     0.2052
 44571 H2         -24.3770    22.4040   -29.1700 H      8553  TIP8403     0.2052
 44572 OH2         27.7400   -12.3160   -49.0230 O.3    8554  TIP8404    -0.4105
 44573 H1          28.2700   -11.8140   -49.6420 H      8554  TIP8404     0.2052
 44574 H2          27.4750   -11.6780   -48.3600 H      8554  TIP8404     0.2052
 44575 OH2        -18.1380     2.0090   -35.4890 O.3    8555  TIP8405    -0.4105
 44576 H1         -18.1660     1.2950   -34.8530 H      8555  TIP8405     0.2052
 44577 H2         -18.6690     2.7020   -35.0960 H      8555  TIP8405     0.2052
 44578 OH2         21.3030    27.7820   -17.7320 O.3    8556  TIP8406    -0.4105
 44579 H1          20.9110    28.5140   -18.2090 H      8556  TIP8406     0.2052
 44580 H2          22.0800    28.1560   -17.3160 H      8556  TIP8406     0.2052
 44581 OH2        -27.5440    13.4620   -39.1430 O.3    8557  TIP8407    -0.4105
 44582 H1         -27.6630    14.4060   -39.2480 H      8557  TIP8407     0.2052
 44583 H2         -26.8090    13.3790   -38.5350 H      8557  TIP8407     0.2052
 44584 OH2         24.0550    26.7890    28.8820 O.3    8558  TIP8408    -0.4105
 44585 H1          23.1410    26.8420    28.6010 H      8558  TIP8408     0.2052
 44586 H2          24.3570    25.9410    28.5570 H      8558  TIP8408     0.2052
 44587 OH2         21.3600    18.6680   -47.0250 O.3    8559  TIP8409    -0.4105
 44588 H1          20.5890    18.7690   -47.5820 H      8559  TIP8409     0.2052
 44589 H2          21.9560    19.3600   -47.3120 H      8559  TIP8409     0.2052
 44590 OH2          3.0840   -16.7550   -42.9980 O.3    8560  TIP8410    -0.4105
 44591 H1           3.2460   -16.8330   -42.0580 H      8560  TIP8410     0.2052
 44592 H2           2.2210   -17.1500   -43.1260 H      8560  TIP8410     0.2052
 44593 OH2        -14.1800    22.1280    32.6220 O.3    8561  TIP8411    -0.4105
 44594 H1         -13.3260    21.6970    32.5910 H      8561  TIP8411     0.2052
 44595 H2         -14.5570    21.8510    33.4570 H      8561  TIP8411     0.2052
 44596 OH2          8.7460   -19.3500   -49.9560 O.3    8562  TIP8412    -0.4105
 44597 H1           8.1110   -18.6690   -49.7340 H      8562  TIP8412     0.2052
 44598 H2           8.3780   -19.7770   -50.7290 H      8562  TIP8412     0.2052
 44599 OH2        -31.6490    17.7550    36.7460 O.3    8563  TIP8413    -0.4105
 44600 H1         -31.1640    18.2670    37.3930 H      8563  TIP8413     0.2052
 44601 H2         -32.3160    18.3560    36.4140 H      8563  TIP8413     0.2052
 44602 OH2          2.6440    -9.0640   -36.2020 O.3    8564  TIP8414    -0.4105
 44603 H1           2.4050    -9.6620   -35.4930 H      8564  TIP8414     0.2052
 44604 H2           2.7390    -8.2130   -35.7750 H      8564  TIP8414     0.2052
 44605 OH2        -27.4750    -7.4130    40.1810 O.3    8565  TIP8415    -0.4105
 44606 H1         -28.3270    -7.6560    39.8200 H      8565  TIP8415     0.2052
 44607 H2         -27.6710    -7.0750    41.0550 H      8565  TIP8415     0.2052
 44608 OH2         19.7510   -23.3490    38.2180 O.3    8566  TIP8416    -0.4105
 44609 H1          19.0910   -22.7030    38.4690 H      8566  TIP8416     0.2052
 44610 H2          20.3320   -23.4060    38.9770 H      8566  TIP8416     0.2052
 44611 OH2         29.8210     7.2070   -48.7400 O.3    8567  TIP8417    -0.4105
 44612 H1          29.0740     6.6230   -48.6100 H      8567  TIP8417     0.2052
 44613 H2          29.4290     8.0570   -48.9420 H      8567  TIP8417     0.2052
 44614 OH2         -9.1920   -22.2710   -33.3980 O.3    8568  TIP8418    -0.4105
 44615 H1          -9.4750   -21.9110   -34.2390 H      8568  TIP8418     0.2052
 44616 H2          -9.4210   -23.1990   -33.4450 H      8568  TIP8418     0.2052
 44617 OH2         18.7490    -1.8740   -32.4850 O.3    8569  TIP8419    -0.4105
 44618 H1          18.8700    -2.4930   -33.2060 H      8569  TIP8419     0.2052
 44619 H2          19.5920    -1.8650   -32.0320 H      8569  TIP8419     0.2052
 44620 OH2         23.4270    -2.7310   -35.6350 O.3    8570  TIP8420    -0.4105
 44621 H1          23.6660    -1.9020   -36.0500 H      8570  TIP8420     0.2052
 44622 H2          22.4760    -2.7820   -35.7320 H      8570  TIP8420     0.2052
 44623 OH2          7.7030   -24.9140    39.2450 O.3    8571  TIP8421    -0.4105
 44624 H1           8.2420   -24.6320    38.5050 H      8571  TIP8421     0.2052
 44625 H2           8.0270   -25.7890    39.4580 H      8571  TIP8421     0.2052
 44626 OH2         22.3250    30.0050   -50.8070 O.3    8572  TIP8422    -0.4105
 44627 H1          21.7130    30.5050   -50.2670 H      8572  TIP8422     0.2052
 44628 H2          22.9880    29.6920   -50.1910 H      8572  TIP8422     0.2052
 44629 OH2        -19.1990     0.8850    46.9870 O.3    8573  TIP8423    -0.4105
 44630 H1         -18.6710     0.0920    47.0830 H      8573  TIP8423     0.2052
 44631 H2         -20.0880     0.5650    46.8330 H      8573  TIP8423     0.2052
 44632 OH2        -11.1410    31.3170    33.6370 O.3    8574  TIP8424    -0.4105
 44633 H1         -11.2940    30.4810    34.0760 H      8574  TIP8424     0.2052
 44634 H2         -11.0020    31.0840    32.7190 H      8574  TIP8424     0.2052
 44635 OH2        -23.4180    21.6980   -47.0750 O.3    8575  TIP8425    -0.4105
 44636 H1         -23.5890    22.3140   -46.3620 H      8575  TIP8425     0.2052
 44637 H2         -24.0000    20.9590   -46.8990 H      8575  TIP8425     0.2052
 44638 OH2         -7.3120    14.0530   -48.9940 O.3    8576  TIP8426    -0.4105
 44639 H1          -7.0310    13.2120   -49.3530 H      8576  TIP8426     0.2052
 44640 H2          -8.1310    13.8590   -48.5380 H      8576  TIP8426     0.2052
 44641 OH2         15.6350   -30.2090   -31.2920 O.3    8577  TIP8427    -0.4105
 44642 H1          15.4540   -29.2980   -31.0610 H      8577  TIP8427     0.2052
 44643 H2          15.6040   -30.2240   -32.2490 H      8577  TIP8427     0.2052
 44644 OH2        -31.1520     3.9090   -34.6700 O.3    8578  TIP8428    -0.4105
 44645 H1         -31.0530     3.0750   -35.1290 H      8578  TIP8428     0.2052
 44646 H2         -31.9610     4.2810   -35.0200 H      8578  TIP8428     0.2052
 44647 OH2        -20.8470    30.7310   -54.5060 O.3    8579  TIP8429    -0.4105
 44648 H1         -21.3910    30.2970   -53.8480 H      8579  TIP8429     0.2052
 44649 H2         -20.7380    30.0770   -55.1960 H      8579  TIP8429     0.2052
 44650 OH2         11.2750   -26.9410    30.2380 O.3    8580  TIP8430    -0.4105
 44651 H1          11.5210   -27.8350    30.4740 H      8580  TIP8430     0.2052
 44652 H2          12.0970   -26.5270    29.9750 H      8580  TIP8430     0.2052
 44653 OH2        -12.6430    27.9440    26.6710 O.3    8581  TIP8431    -0.4105
 44654 H1         -11.8360    28.3630    26.3720 H      8581  TIP8431     0.2052
 44655 H2         -12.6160    27.0680    26.2870 H      8581  TIP8431     0.2052
 44656 OH2         26.6490    -5.1480    14.0370 O.3    8582  TIP8432    -0.4105
 44657 H1          26.1380    -5.9550    13.9780 H      8582  TIP8432     0.2052
 44658 H2          27.4810    -5.4180    14.4250 H      8582  TIP8432     0.2052
 44659 OH2          1.1920    17.8970   -38.5000 O.3    8583  TIP8433    -0.4105
 44660 H1           0.6550    18.4830   -37.9660 H      8583  TIP8433     0.2052
 44661 H2           0.7260    17.0610   -38.4800 H      8583  TIP8433     0.2052
 44662 OH2        -17.5710    11.7660   -16.5620 O.3    8584  TIP8434    -0.4105
 44663 H1         -17.7640    11.3140   -15.7410 H      8584  TIP8434     0.2052
 44664 H2         -16.9150    12.4220   -16.3260 H      8584  TIP8434     0.2052
 44665 OH2         10.3030   -19.9610   -31.0020 O.3    8585  TIP8435    -0.4105
 44666 H1           9.5750   -20.5260   -31.2610 H      8585  TIP8435     0.2052
 44667 H2          10.4240   -19.3700   -31.7450 H      8585  TIP8435     0.2052
 44668 OH2         21.7100    15.2730    39.5270 O.3    8586  TIP8436    -0.4105
 44669 H1          21.2760    15.8110    40.1890 H      8586  TIP8436     0.2052
 44670 H2          21.5270    14.3720    39.7920 H      8586  TIP8436     0.2052
 44671 OH2        -10.2930    13.7910    48.7360 O.3    8587  TIP8437    -0.4105
 44672 H1         -10.8170    14.5820    48.8610 H      8587  TIP8437     0.2052
 44673 H2         -10.9320    13.0780    48.7340 H      8587  TIP8437     0.2052
 44674 OH2         -5.4500   -25.3520   -50.7340 O.3    8588  TIP8438    -0.4105
 44675 H1          -5.2320   -24.4210   -50.7040 H      8588  TIP8438     0.2052
 44676 H2          -4.7940   -25.7340   -51.3160 H      8588  TIP8438     0.2052
 44677 OH2         11.3810   -28.8110   -36.2010 O.3    8589  TIP8439    -0.4105
 44678 H1          11.8950   -28.1670   -36.6870 H      8589  TIP8439     0.2052
 44679 H2          11.9450   -29.0680   -35.4720 H      8589  TIP8439     0.2052
 44680 OH2        -28.6800   -23.7800   -53.9980 O.3    8590  TIP8440    -0.4105
 44681 H1         -29.2450   -23.0190   -53.8650 H      8590  TIP8440     0.2052
 44682 H2         -29.2350   -24.5310   -53.7870 H      8590  TIP8440     0.2052
 44683 OH2        -15.9570    -2.0390   -34.1880 O.3    8591  TIP8441    -0.4105
 44684 H1         -15.8520    -2.2290   -33.2560 H      8591  TIP8441     0.2052
 44685 H2         -15.8330    -1.0920   -34.2560 H      8591  TIP8441     0.2052
 44686 OH2         31.1820    23.0080    30.1930 O.3    8592  TIP8442    -0.4105
 44687 H1          31.6140    23.7660    30.5850 H      8592  TIP8442     0.2052
 44688 H2          30.2470    23.1830    30.2990 H      8592  TIP8442     0.2052
 44689 OH2         -5.6350   -25.3430    27.6440 O.3    8593  TIP8443    -0.4105
 44690 H1          -4.7660   -24.9460    27.5880 H      8593  TIP8443     0.2052
 44691 H2          -5.8920   -25.2300    28.5590 H      8593  TIP8443     0.2052
 44692 OH2         15.1730    -1.9760   -40.6460 O.3    8594  TIP8444    -0.4105
 44693 H1          16.0240    -1.6590   -40.3450 H      8594  TIP8444     0.2052
 44694 H2          14.8270    -1.2620   -41.1820 H      8594  TIP8444     0.2052
 44695 OH2         15.1260   -15.0520   -38.3390 O.3    8595  TIP8445    -0.4105
 44696 H1          14.2280   -15.1450   -38.6550 H      8595  TIP8445     0.2052
 44697 H2          15.5900   -15.8020   -38.7120 H      8595  TIP8445     0.2052
 44698 OH2         -7.4330    -8.1680   -33.4070 O.3    8596  TIP8446    -0.4105
 44699 H1          -7.9700    -7.4380   -33.7160 H      8596  TIP8446     0.2052
 44700 H2          -6.6870    -7.7500   -32.9750 H      8596  TIP8446     0.2052
 44701 OH2         -3.5240   -21.7420    26.1140 O.3    8597  TIP8447    -0.4105
 44702 H1          -4.4090   -21.7160    25.7520 H      8597  TIP8447     0.2052
 44703 H2          -3.4290   -20.9090    26.5780 H      8597  TIP8447     0.2052
 44704 OH2         23.4770    15.8150    53.2210 O.3    8598  TIP8448    -0.4105
 44705 H1          23.8330    16.5970    52.7990 H      8598  TIP8448     0.2052
 44706 H2          23.2040    15.2540    52.4940 H      8598  TIP8448     0.2052
 44707 OH2          8.9660    -0.9550   -25.9620 O.3    8599  TIP8449    -0.4105
 44708 H1           9.2080    -1.0890   -25.0460 H      8599  TIP8449     0.2052
 44709 H2           8.6500    -0.0520   -25.9980 H      8599  TIP8449     0.2052
 44710 OH2        -16.6540   -28.4590   -33.6310 O.3    8600  TIP8450    -0.4105
 44711 H1         -16.4230   -28.6890   -32.7310 H      8600  TIP8450     0.2052
 44712 H2         -17.6070   -28.5340   -33.6610 H      8600  TIP8450     0.2052
 44713 OH2        -25.9820    16.5400   -44.1480 O.3    8601  TIP8451    -0.4105
 44714 H1         -25.5870    16.4040   -43.2870 H      8601  TIP8451     0.2052
 44715 H2         -26.9070    16.3240   -44.0250 H      8601  TIP8451     0.2052
 44716 OH2        -17.7050   -23.8360    28.0490 O.3    8602  TIP8452    -0.4105
 44717 H1         -16.8710   -23.6340    28.4720 H      8602  TIP8452     0.2052
 44718 H2         -17.5050   -23.8420    27.1130 H      8602  TIP8452     0.2052
 44719 OH2         19.6590    21.8240    53.6810 O.3    8603  TIP8453    -0.4105
 44720 H1          19.1640    22.5650    53.3320 H      8603  TIP8453     0.2052
 44721 H2          20.5460    22.1630    53.8020 H      8603  TIP8453     0.2052
 44722 OH2         17.1850   -28.0230   -46.1780 O.3    8604  TIP8454    -0.4105
 44723 H1          18.0000   -28.5210   -46.1220 H      8604  TIP8454     0.2052
 44724 H2          17.4380   -27.1230   -45.9730 H      8604  TIP8454     0.2052
 44725 OH2        -11.6850    27.2120    45.1620 O.3    8605  TIP8455    -0.4105
 44726 H1         -11.8910    28.1460    45.1320 H      8605  TIP8455     0.2052
 44727 H2         -10.8590    27.1630    45.6420 H      8605  TIP8455     0.2052
 44728 OH2         31.4240    -1.4530    35.4340 O.3    8606  TIP8456    -0.4105
 44729 H1          30.5280    -1.1730    35.6250 H      8606  TIP8456     0.2052
 44730 H2          31.3540    -2.3970    35.2890 H      8606  TIP8456     0.2052
 44731 OH2        -11.4310    -8.5850   -17.5040 O.3    8607  TIP8457    -0.4105
 44732 H1         -12.3180    -8.8530   -17.2640 H      8607  TIP8457     0.2052
 44733 H2         -11.2370    -7.8490   -16.9240 H      8607  TIP8457     0.2052
 44734 OH2         11.5750   -28.4310   -43.6950 O.3    8608  TIP8458    -0.4105
 44735 H1          11.7270   -29.3270   -43.9930 H      8608  TIP8458     0.2052
 44736 H2          10.8730   -28.1060   -44.2600 H      8608  TIP8458     0.2052
 44737 OH2        -25.4100   -26.7430    34.7160 O.3    8609  TIP8459    -0.4105
 44738 H1         -26.2210   -26.5910    35.2000 H      8609  TIP8459     0.2052
 44739 H2         -25.2520   -27.6830    34.8020 H      8609  TIP8459     0.2052
 44740 OH2         -3.1900    -1.3400   -27.3430 O.3    8610  TIP8460    -0.4105
 44741 H1          -2.5430    -0.8100   -27.8080 H      8610  TIP8460     0.2052
 44742 H2          -2.8070    -1.4820   -26.4770 H      8610  TIP8460     0.2052
 44743 OH2         32.2400   -32.3800   -37.2290 O.3    8611  TIP8461    -0.4105
 44744 H1          33.1410   -32.5060   -36.9330 H      8611  TIP8461     0.2052
 44745 H2          31.8580   -33.2580   -37.2150 H      8611  TIP8461     0.2052
 44746 OH2         28.7230    12.6570   -26.5010 O.3    8612  TIP8462    -0.4105
 44747 H1          29.2340    11.8680   -26.6810 H      8612  TIP8462     0.2052
 44748 H2          27.8470    12.4560   -26.8310 H      8612  TIP8462     0.2052
 44749 OH2        -23.0930   -28.0070    47.9920 O.3    8613  TIP8463    -0.4105
 44750 H1         -23.4950   -28.7300    47.5100 H      8613  TIP8463     0.2052
 44751 H2         -22.5550   -28.4340    48.6590 H      8613  TIP8463     0.2052
 44752 OH2        -32.4020    -1.7840   -32.7020 O.3    8614  TIP8464    -0.4105
 44753 H1         -31.8610    -1.4150   -33.4000 H      8614  TIP8464     0.2052
 44754 H2         -31.7750    -2.1700   -32.0910 H      8614  TIP8464     0.2052
 44755 OH2         -7.7870   -20.4210   -46.2670 O.3    8615  TIP8465    -0.4105
 44756 H1          -7.1060   -19.9750   -46.7700 H      8615  TIP8465     0.2052
 44757 H2          -8.2050   -19.7250   -45.7590 H      8615  TIP8465     0.2052
 44758 OH2          9.3700    14.7610   -36.4070 O.3    8616  TIP8466    -0.4105
 44759 H1           9.2030    14.0070   -36.9710 H      8616  TIP8466     0.2052
 44760 H2           8.8870    15.4790   -36.8160 H      8616  TIP8466     0.2052
 44761 OH2         27.8100   -28.0760    27.3040 O.3    8617  TIP8467    -0.4105
 44762 H1          27.6230   -28.5070    26.4700 H      8617  TIP8467     0.2052
 44763 H2          27.0190   -28.2110    27.8270 H      8617  TIP8467     0.2052
 44764 OH2        -29.0850   -10.5650    24.4990 O.3    8618  TIP8468    -0.4105
 44765 H1         -29.0510   -11.4460    24.8720 H      8618  TIP8468     0.2052
 44766 H2         -28.2660   -10.4780    24.0120 H      8618  TIP8468     0.2052
 44767 OH2         17.2530   -32.4680    16.7720 O.3    8619  TIP8469    -0.4105
 44768 H1          18.1450   -32.2140    17.0100 H      8619  TIP8469     0.2052
 44769 H2          17.1050   -32.0550    15.9220 H      8619  TIP8469     0.2052
 44770 OH2         -0.0380    10.1680    53.2090 O.3    8620  TIP8470    -0.4105
 44771 H1          -0.2010     9.2610    53.4700 H      8620  TIP8470     0.2052
 44772 H2          -0.1230    10.6700    54.0190 H      8620  TIP8470     0.2052
 44773 OH2          8.5680   -26.9170    30.9020 O.3    8621  TIP8471    -0.4105
 44774 H1           8.2580   -26.0310    30.7100 H      8621  TIP8471     0.2052
 44775 H2           9.4830   -26.9170    30.6200 H      8621  TIP8471     0.2052
 44776 OH2         19.1730    13.2290    54.3990 O.3    8622  TIP8472    -0.4105
 44777 H1          19.1020    13.2790    53.4460 H      8622  TIP8472     0.2052
 44778 H2          19.7670    13.9410    54.6330 H      8622  TIP8472     0.2052
 44779 OH2        -24.4150    15.9320   -29.7270 O.3    8623  TIP8473    -0.4105
 44780 H1         -24.9360    16.6220   -29.3160 H      8623  TIP8473     0.2052
 44781 H2         -24.3190    16.2140   -30.6360 H      8623  TIP8473     0.2052
 44782 OH2         12.6820   -10.7390   -30.6710 O.3    8624  TIP8474    -0.4105
 44783 H1          12.5380   -10.0570   -31.3270 H      8624  TIP8474     0.2052
 44784 H2          11.8840   -10.7340   -30.1420 H      8624  TIP8474     0.2052
 44785 OH2        -30.3320     8.2760    42.0160 O.3    8625  TIP8475    -0.4105
 44786 H1         -30.2470     8.0050    42.9300 H      8625  TIP8475     0.2052
 44787 H2         -30.2030     7.4710    41.5140 H      8625  TIP8475     0.2052
 44788 OH2        -25.7270   -24.9070    28.6920 O.3    8626  TIP8476    -0.4105
 44789 H1         -24.8460   -24.6010    28.9080 H      8626  TIP8476     0.2052
 44790 H2         -26.3100   -24.3260    29.1800 H      8626  TIP8476     0.2052
 44791 OH2        -27.1190     8.9120    54.7890 O.3    8627  TIP8477    -0.4105
 44792 H1         -28.0090     8.8080    55.1240 H      8627  TIP8477     0.2052
 44793 H2         -27.2160     8.8860    53.8370 H      8627  TIP8477     0.2052
 44794 OH2         -2.1950    -2.9810   -37.9360 O.3    8628  TIP8478    -0.4105
 44795 H1          -2.6040    -2.4630   -38.6300 H      8628  TIP8478     0.2052
 44796 H2          -2.1790    -2.3960   -37.1790 H      8628  TIP8478     0.2052
 44797 OH2         27.5900     0.2280   -53.8440 O.3    8629  TIP8479    -0.4105
 44798 H1          27.7870    -0.6110   -53.4260 H      8629  TIP8479     0.2052
 44799 H2          27.0560     0.6950   -53.2020 H      8629  TIP8479     0.2052
 44800 OH2        -12.6990    -6.6570   -11.1310 O.3    8630  TIP8480    -0.4105
 44801 H1         -13.0900    -6.8730   -11.9780 H      8630  TIP8480     0.2052
 44802 H2         -12.8320    -7.4410   -10.5980 H      8630  TIP8480     0.2052
 44803 OH2         21.9760    13.9940   -35.3050 O.3    8631  TIP8481    -0.4105
 44804 H1          22.8450    13.5970   -35.2530 H      8631  TIP8481     0.2052
 44805 H2          21.9590    14.4210   -36.1620 H      8631  TIP8481     0.2052
 44806 OH2        -13.9420    -6.0260    34.6100 O.3    8632  TIP8482    -0.4105
 44807 H1         -14.8690    -5.9360    34.8300 H      8632  TIP8482     0.2052
 44808 H2         -13.6780    -5.1530    34.3200 H      8632  TIP8482     0.2052
 44809 OH2        -16.7090    15.6760   -55.4920 O.3    8633  TIP8483    -0.4105
 44810 H1         -16.8110    16.1100   -56.3390 H      8633  TIP8483     0.2052
 44811 H2         -17.1710    16.2440   -54.8740 H      8633  TIP8483     0.2052
 44812 OH2         24.5240    18.4030   -50.8550 O.3    8634  TIP8484    -0.4105
 44813 H1          24.5560    18.3890   -49.8990 H      8634  TIP8484     0.2052
 44814 H2          24.9590    17.5930   -51.1220 H      8634  TIP8484     0.2052
 44815 OH2          3.4160   -19.3310   -46.3750 O.3    8635  TIP8485    -0.4105
 44816 H1           2.7290   -19.5480   -45.7450 H      8635  TIP8485     0.2052
 44817 H2           3.9740   -18.7040   -45.9150 H      8635  TIP8485     0.2052
 44818 OH2        -13.0590    -1.6900   -24.5990 O.3    8636  TIP8486    -0.4105
 44819 H1         -12.2340    -1.2070   -24.6450 H      8636  TIP8486     0.2052
 44820 H2         -13.1030    -2.0030   -23.6960 H      8636  TIP8486     0.2052
 44821 OH2         17.0490    -5.7340    44.8690 O.3    8637  TIP8487    -0.4105
 44822 H1          16.4120    -5.4770    44.2020 H      8637  TIP8487     0.2052
 44823 H2          17.8120    -6.0270    44.3720 H      8637  TIP8487     0.2052
 44824 OH2         -4.0730   -11.0090   -37.1830 O.3    8638  TIP8488    -0.4105
 44825 H1          -3.6980   -10.6690   -36.3710 H      8638  TIP8488     0.2052
 44826 H2          -3.9770   -11.9590   -37.1130 H      8638  TIP8488     0.2052
 44827 OH2         12.7310   -23.6360   -30.5100 O.3    8639  TIP8489    -0.4105
 44828 H1          12.9840   -22.7580   -30.2230 H      8639  TIP8489     0.2052
 44829 H2          13.4070   -23.8860   -31.1400 H      8639  TIP8489     0.2052
 44830 OH2        -21.2330   -14.9400    37.6650 O.3    8640  TIP8490    -0.4105
 44831 H1         -20.7160   -15.1710    38.4370 H      8640  TIP8490     0.2052
 44832 H2         -20.8960   -15.5080    36.9720 H      8640  TIP8490     0.2052
 44833 OH2        -18.3060     5.8140   -52.5540 O.3    8641  TIP8491    -0.4105
 44834 H1         -18.9230     6.4390   -52.1720 H      8641  TIP8491     0.2052
 44835 H2         -17.8840     5.4030   -51.8000 H      8641  TIP8491     0.2052
 44836 OH2        -17.6200    -2.1970    50.5040 O.3    8642  TIP8492    -0.4105
 44837 H1         -16.8720    -2.2190    49.9070 H      8642  TIP8492     0.2052
 44838 H2         -17.2820    -2.5500    51.3270 H      8642  TIP8492     0.2052
 44839 OH2         22.7790     0.5390   -38.3820 O.3    8643  TIP8493    -0.4105
 44840 H1          23.1440     1.4230   -38.3320 H      8643  TIP8493     0.2052
 44841 H2          23.5000    -0.0330   -38.1190 H      8643  TIP8493     0.2052
 44842 OH2        -13.3350    23.2140    39.4880 O.3    8644  TIP8494    -0.4105
 44843 H1         -12.6740    22.6570    39.9000 H      8644  TIP8494     0.2052
 44844 H2         -13.6770    23.7480    40.2050 H      8644  TIP8494     0.2052
 44845 OH2         -0.7490    -5.9370    40.6810 O.3    8645  TIP8495    -0.4105
 44846 H1          -0.7140    -5.4290    41.4910 H      8645  TIP8495     0.2052
 44847 H2          -0.8590    -6.8430    40.9700 H      8645  TIP8495     0.2052
 44848 OH2        -15.1060   -32.2340    22.6580 O.3    8646  TIP8496    -0.4105
 44849 H1         -15.1700   -31.7460    23.4790 H      8646  TIP8496     0.2052
 44850 H2         -14.6870   -31.6250    22.0490 H      8646  TIP8496     0.2052
 44851 OH2         26.7120   -32.1930    38.8280 O.3    8647  TIP8497    -0.4105
 44852 H1          26.0460   -32.7450    39.2380 H      8647  TIP8497     0.2052
 44853 H2          26.3380   -31.3120    38.8480 H      8647  TIP8497     0.2052
 44854 OH2         -1.3790     0.5000   -12.1440 O.3    8648  TIP8498    -0.4105
 44855 H1          -1.0780     0.3000   -11.2570 H      8648  TIP8498     0.2052
 44856 H2          -0.9310     1.3140   -12.3720 H      8648  TIP8498     0.2052
 44857 OH2         -7.2460   -20.3790    42.7280 O.3    8649  TIP8499    -0.4105
 44858 H1          -7.4860   -21.3000    42.8240 H      8649  TIP8499     0.2052
 44859 H2          -7.5080   -19.9750    43.5560 H      8649  TIP8499     0.2052
 44860 OH2          4.1170     1.7220   -25.9810 O.3    8650  TIP8500    -0.4105
 44861 H1           4.2430     2.5490   -25.5160 H      8650  TIP8500     0.2052
 44862 H2           3.7220     1.9740   -26.8160 H      8650  TIP8500     0.2052
 44863 OH2         -6.7790     0.4930   -27.3030 O.3    8651  TIP8501    -0.4105
 44864 H1          -7.5940     0.9080   -27.5860 H      8651  TIP8501     0.2052
 44865 H2          -6.1120     1.1700   -27.4200 H      8651  TIP8501     0.2052
 44866 OH2         19.4440   -32.4230   -22.1190 O.3    8652  TIP8502    -0.4105
 44867 H1          18.7250   -32.2500   -22.7260 H      8652  TIP8502     0.2052
 44868 H2          19.3780   -31.7280   -21.4650 H      8652  TIP8502     0.2052
 44869 OH2          0.7330    32.4480    49.7250 O.3    8653  TIP8503    -0.4105
 44870 H1           1.4040    33.0990    49.5200 H      8653  TIP8503     0.2052
 44871 H2           0.8850    32.2280    50.6440 H      8653  TIP8503     0.2052
 44872 OH2         -6.5030    28.9640    38.7290 O.3    8654  TIP8504    -0.4105
 44873 H1          -7.2870    28.4340    38.5840 H      8654  TIP8504     0.2052
 44874 H2          -5.7980    28.4690    38.3120 H      8654  TIP8504     0.2052
 44875 OH2         32.3030    28.9680   -33.4370 O.3    8655  TIP8505    -0.4105
 44876 H1          33.0300    29.5550   -33.6450 H      8655  TIP8505     0.2052
 44877 H2          32.1580    29.0890   -32.4990 H      8655  TIP8505     0.2052
 44878 OH2        -20.1950     2.5110    55.4280 O.3    8656  TIP8506    -0.4105
 44879 H1         -19.5350     2.4740    56.1200 H      8656  TIP8506     0.2052
 44880 H2         -20.4470     1.5990    55.2870 H      8656  TIP8506     0.2052
 44881 OH2        -23.5070     5.4180   -46.6570 O.3    8657  TIP8507    -0.4105
 44882 H1         -23.4850     6.3180   -46.3330 H      8657  TIP8507     0.2052
 44883 H2         -24.2140     5.4110   -47.3020 H      8657  TIP8507     0.2052
 44884 OH2         25.4650    29.9020    39.8270 O.3    8658  TIP8508    -0.4105
 44885 H1          24.7580    29.7120    39.2090 H      8658  TIP8508     0.2052
 44886 H2          26.2030    30.1590    39.2750 H      8658  TIP8508     0.2052
 44887 OH2          0.6230   -23.6520   -49.6380 O.3    8659  TIP8509    -0.4105
 44888 H1          -0.2150   -23.7780   -49.1940 H      8659  TIP8509     0.2052
 44889 H2           1.2430   -24.1810   -49.1360 H      8659  TIP8509     0.2052
 44890 OH2        -18.9300    -7.1170    28.2750 O.3    8660  TIP8510    -0.4105
 44891 H1         -18.3100    -6.5080    28.6760 H      8660  TIP8510     0.2052
 44892 H2         -19.1570    -7.7270    28.9780 H      8660  TIP8510     0.2052
 44893 OH2          4.9910   -28.1030    47.1260 O.3    8661  TIP8511    -0.4105
 44894 H1           5.4380   -27.2690    47.2690 H      8661  TIP8511     0.2052
 44895 H2           5.0590   -28.5580    47.9650 H      8661  TIP8511     0.2052
 44896 OH2         26.1980    14.9280    47.0120 O.3    8662  TIP8512    -0.4105
 44897 H1          26.1820    15.7990    46.6140 H      8662  TIP8512     0.2052
 44898 H2          25.7710    14.3620    46.3690 H      8662  TIP8512     0.2052
 44899 OH2        -29.5930   -24.2340   -22.0200 O.3    8663  TIP8513    -0.4105
 44900 H1         -30.1520   -23.7020   -21.4540 H      8663  TIP8513     0.2052
 44901 H2         -30.1940   -24.6240   -22.6550 H      8663  TIP8513     0.2052
 44902 OH2         -4.3460   -13.2460   -43.1710 O.3    8664  TIP8514    -0.4105
 44903 H1          -5.1350   -13.2370   -43.7140 H      8664  TIP8514     0.2052
 44904 H2          -4.1620   -12.3220   -43.0000 H      8664  TIP8514     0.2052
 44905 OH2         14.2990   -19.9550    39.0740 O.3    8665  TIP8515    -0.4105
 44906 H1          14.5810   -20.7620    39.5040 H      8665  TIP8515     0.2052
 44907 H2          14.0070   -19.3900    39.7900 H      8665  TIP8515     0.2052
 44908 OH2         31.9100   -15.7210    28.4560 O.3    8666  TIP8516    -0.4105
 44909 H1          32.0740   -16.5990    28.7990 H      8666  TIP8516     0.2052
 44910 H2          31.1300   -15.8200    27.9090 H      8666  TIP8516     0.2052
 44911 OH2        -20.4540    29.9560    24.5770 O.3    8667  TIP8517    -0.4105
 44912 H1         -20.4800    29.8880    23.6230 H      8667  TIP8517     0.2052
 44913 H2         -19.7460    30.5740    24.7550 H      8667  TIP8517     0.2052
 44914 OH2        -14.6870   -15.6390   -26.4790 O.3    8668  TIP8518    -0.4105
 44915 H1         -14.7290   -14.6910   -26.6000 H      8668  TIP8518     0.2052
 44916 H2         -14.3600   -15.7530   -25.5860 H      8668  TIP8518     0.2052
 44917 OH2          6.7470    -7.6050   -55.5330 O.3    8669  TIP8519    -0.4105
 44918 H1           7.5200    -7.9790   -55.1090 H      8669  TIP8519     0.2052
 44919 H2           6.8990    -6.6600   -55.5170 H      8669  TIP8519     0.2052
 44920 OH2         -1.6400   -25.2800    33.4990 O.3    8670  TIP8520    -0.4105
 44921 H1          -1.7040   -25.0410    34.4240 H      8670  TIP8520     0.2052
 44922 H2          -2.5350   -25.2030    33.1690 H      8670  TIP8520     0.2052
 44923 OH2         23.7810    20.6970    43.6000 O.3    8671  TIP8521    -0.4105
 44924 H1          23.1070    20.8350    42.9350 H      8671  TIP8521     0.2052
 44925 H2          23.3230    20.8080    44.4330 H      8671  TIP8521     0.2052
 44926 OH2         25.0200   -15.0520    55.1280 O.3    8672  TIP8522    -0.4105
 44927 H1          25.1800   -15.9830    55.2820 H      8672  TIP8522     0.2052
 44928 H2          24.4200   -15.0330    54.3820 H      8672  TIP8522     0.2052
 44929 OH2         32.7080    -6.9040   -26.6700 O.3    8673  TIP8523    -0.4105
 44930 H1          31.9790    -6.9440   -27.2890 H      8673  TIP8523     0.2052
 44931 H2          33.3570    -7.5110   -27.0240 H      8673  TIP8523     0.2052
 44932 OH2        -16.9470    -7.3530    24.1180 O.3    8674  TIP8524    -0.4105
 44933 H1         -17.5370    -6.9220    24.7370 H      8674  TIP8524     0.2052
 44934 H2         -16.5340    -6.6340    23.6410 H      8674  TIP8524     0.2052
 44935 OH2        -16.7150   -28.4240   -40.3820 O.3    8675  TIP8525    -0.4105
 44936 H1         -16.2750   -27.7060   -40.8370 H      8675  TIP8525     0.2052
 44937 H2         -16.4020   -28.3650   -39.4800 H      8675  TIP8525     0.2052
 44938 OH2         -8.8660    -2.0600    44.3400 O.3    8676  TIP8526    -0.4105
 44939 H1          -9.4230    -1.5950    43.7160 H      8676  TIP8526     0.2052
 44940 H2          -8.8950    -2.9730    44.0540 H      8676  TIP8526     0.2052
 44941 OH2         26.2140   -24.4660   -34.5800 O.3    8677  TIP8527    -0.4105
 44942 H1          25.9320   -23.6200   -34.2310 H      8677  TIP8527     0.2052
 44943 H2          26.6370   -24.9020   -33.8400 H      8677  TIP8527     0.2052
 44944 OH2        -27.4660   -12.5790   -15.8850 O.3    8678  TIP8528    -0.4105
 44945 H1         -28.3380   -12.3270   -16.1880 H      8678  TIP8528     0.2052
 44946 H2         -27.0860   -11.7680   -15.5460 H      8678  TIP8528     0.2052
 44947 OH2        -14.7960    -6.8900   -43.0680 O.3    8679  TIP8529    -0.4105
 44948 H1         -14.4150    -7.6420   -42.6150 H      8679  TIP8529     0.2052
 44949 H2         -15.1570    -7.2540   -43.8760 H      8679  TIP8529     0.2052
 44950 OH2        -31.0030   -25.2730   -46.6510 O.3    8680  TIP8530    -0.4105
 44951 H1         -30.3790   -25.5660   -45.9880 H      8680  TIP8530     0.2052
 44952 H2         -31.1190   -26.0320   -47.2230 H      8680  TIP8530     0.2052
 44953 OH2          0.0070   -12.3680   -43.7070 O.3    8681  TIP8531    -0.4105
 44954 H1           0.5950   -12.3690   -42.9520 H      8681  TIP8531     0.2052
 44955 H2          -0.0230   -13.2830   -43.9890 H      8681  TIP8531     0.2052
 44956 OH2          5.1350     5.4450    49.0590 O.3    8682  TIP8532    -0.4105
 44957 H1           5.4300     5.1250    48.2070 H      8682  TIP8532     0.2052
 44958 H2           5.6660     4.9630    49.6930 H      8682  TIP8532     0.2052
 44959 OH2         22.5290   -18.8510   -11.4970 O.3    8683  TIP8533    -0.4105
 44960 H1          23.1300   -18.4340   -12.1140 H      8683  TIP8533     0.2052
 44961 H2          22.2760   -19.6700   -11.9250 H      8683  TIP8533     0.2052
 44962 OH2         19.6550   -14.1220   -46.1200 O.3    8684  TIP8534    -0.4105
 44963 H1          19.3300   -14.3010   -47.0030 H      8684  TIP8534     0.2052
 44964 H2          19.0660   -14.6090   -45.5440 H      8684  TIP8534     0.2052
 44965 OH2         29.2670   -24.7850    33.9740 O.3    8685  TIP8535    -0.4105
 44966 H1          29.3170   -25.6450    34.3920 H      8685  TIP8535     0.2052
 44967 H2          28.5140   -24.8470    33.3870 H      8685  TIP8535     0.2052
 44968 OH2         21.7170    -8.4410    21.7850 O.3    8686  TIP8536    -0.4105
 44969 H1          21.3670    -7.5570    21.8930 H      8686  TIP8536     0.2052
 44970 H2          21.7360    -8.8020    22.6710 H      8686  TIP8536     0.2052
 44971 OH2          9.2760     4.3280   -49.5050 O.3    8687  TIP8537    -0.4105
 44972 H1          10.1790     4.4930   -49.2340 H      8687  TIP8537     0.2052
 44973 H2           9.3440     4.0750   -50.4250 H      8687  TIP8537     0.2052
 44974 OH2          5.2210    13.7710    33.2620 O.3    8688  TIP8538    -0.4105
 44975 H1           4.3340    14.0840    33.4360 H      8688  TIP8538     0.2052
 44976 H2           5.7640    14.2140    33.9150 H      8688  TIP8538     0.2052
 44977 OH2        -20.9890    30.4260    40.7500 O.3    8689  TIP8539    -0.4105
 44978 H1         -21.4610    31.1980    41.0610 H      8689  TIP8539     0.2052
 44979 H2         -20.4660    30.1460    41.5020 H      8689  TIP8539     0.2052
 44980 OH2        -26.9370   -13.2940    36.1350 O.3    8690  TIP8540    -0.4105
 44981 H1         -26.4070   -13.6600    36.8430 H      8690  TIP8540     0.2052
 44982 H2         -27.8310   -13.5680    36.3380 H      8690  TIP8540     0.2052
 44983 OH2         -4.1210    -4.8450   -38.2720 O.3    8691  TIP8541    -0.4105
 44984 H1          -3.5100    -4.1080   -38.2910 H      8691  TIP8541     0.2052
 44985 H2          -4.9740    -4.4440   -38.1060 H      8691  TIP8541     0.2052
 44986 OH2         17.6270    25.7560    35.9170 O.3    8692  TIP8542    -0.4105
 44987 H1          17.8300    25.2060    36.6740 H      8692  TIP8542     0.2052
 44988 H2          18.1350    26.5550    36.0570 H      8692  TIP8542     0.2052
 44989 OH2         -1.0810    13.7050   -45.7860 O.3    8693  TIP8543    -0.4105
 44990 H1          -0.9460    14.6520   -45.7440 H      8693  TIP8543     0.2052
 44991 H2          -1.4300    13.5510   -46.6630 H      8693  TIP8543     0.2052
 44992 OH2         24.0380    21.0310   -20.2590 O.3    8694  TIP8544    -0.4105
 44993 H1          24.4460    21.8840   -20.1100 H      8694  TIP8544     0.2052
 44994 H2          23.7150    20.7660   -19.3970 H      8694  TIP8544     0.2052
 44995 OH2         -8.2890   -12.9580    30.2200 O.3    8695  TIP8545    -0.4105
 44996 H1          -7.5360   -13.4640    29.9150 H      8695  TIP8545     0.2052
 44997 H2          -8.7600   -12.7250    29.4200 H      8695  TIP8545     0.2052
 44998 OH2         15.7770    29.1550    20.9520 O.3    8696  TIP8546    -0.4105
 44999 H1          14.9080    29.5500    20.8940 H      8696  TIP8546     0.2052
 45000 H2          15.9840    28.8990    20.0530 H      8696  TIP8546     0.2052
 45001 OH2        -28.7950    -5.6210   -27.0370 O.3    8697  TIP8547    -0.4105
 45002 H1         -27.9960    -5.1420   -26.8150 H      8697  TIP8547     0.2052
 45003 H2         -29.0790    -6.0100   -26.2090 H      8697  TIP8547     0.2052
 45004 OH2        -23.8650    -4.8470   -43.9930 O.3    8698  TIP8548    -0.4105
 45005 H1         -23.3030    -5.5380   -43.6440 H      8698  TIP8548     0.2052
 45006 H2         -24.0760    -5.1350   -44.8810 H      8698  TIP8548     0.2052
 45007 OH2        -26.4620    10.5050    38.2960 O.3    8699  TIP8549    -0.4105
 45008 H1         -27.2970    10.9480    38.1430 H      8699  TIP8549     0.2052
 45009 H2         -26.6470     9.8800    38.9960 H      8699  TIP8549     0.2052
 45010 OH2        -25.7730    29.6110   -32.1120 O.3    8700  TIP8550    -0.4105
 45011 H1         -26.6020    29.3060   -31.7440 H      8700  TIP8550     0.2052
 45012 H2         -26.0120    30.3640   -32.6530 H      8700  TIP8550     0.2052
 45013 OH2        -31.8750    22.2180    54.4850 O.3    8701  TIP8551    -0.4105
 45014 H1         -31.3380    21.9190    55.2190 H      8701  TIP8551     0.2052
 45015 H2         -31.3270    22.0750    53.7130 H      8701  TIP8551     0.2052
 45016 OH2         14.1070     9.1530   -33.4100 O.3    8702  TIP8552    -0.4105
 45017 H1          13.3930     9.4690   -32.8560 H      8702  TIP8552     0.2052
 45018 H2          14.4340     9.9380   -33.8510 H      8702  TIP8552     0.2052
 45019 OH2          2.6570   -14.8600    53.3390 O.3    8703  TIP8553    -0.4105
 45020 H1           3.5970   -15.0210    53.4180 H      8703  TIP8553     0.2052
 45021 H2           2.3510   -15.5230    52.7200 H      8703  TIP8553     0.2052
 45022 OH2        -14.7550     6.3030    41.1530 O.3    8704  TIP8554    -0.4105
 45023 H1         -14.1130     7.0120    41.1070 H      8704  TIP8554     0.2052
 45024 H2         -15.0370     6.1760    40.2470 H      8704  TIP8554     0.2052
 45025 OH2         -7.7900   -27.3030    39.8930 O.3    8705  TIP8555    -0.4105
 45026 H1          -7.6650   -26.8950    40.7500 H      8705  TIP8555     0.2052
 45027 H2          -6.9040   -27.4970    39.5880 H      8705  TIP8555     0.2052
 45028 OH2          8.1030    10.9970    26.6680 O.3    8706  TIP8556    -0.4105
 45029 H1           8.5130    10.6450    25.8790 H      8706  TIP8556     0.2052
 45030 H2           8.6020    10.6140    27.3900 H      8706  TIP8556     0.2052
 45031 OH2        -23.3720   -11.5280   -33.0800 O.3    8707  TIP8557    -0.4105
 45032 H1         -23.2930   -12.4760   -32.9740 H      8707  TIP8557     0.2052
 45033 H2         -22.8380   -11.1620   -32.3750 H      8707  TIP8557     0.2052
 45034 OH2         16.0540    28.5540   -47.2690 O.3    8708  TIP8558    -0.4105
 45035 H1          15.5670    29.2450   -46.8200 H      8708  TIP8558     0.2052
 45036 H2          15.9240    27.7770   -46.7260 H      8708  TIP8558     0.2052
 45037 OH2          8.4420    28.2060    53.9740 O.3    8709  TIP8559    -0.4105
 45038 H1           8.5770    28.7770    54.7310 H      8709  TIP8559     0.2052
 45039 H2           8.3150    28.8080    53.2400 H      8709  TIP8559     0.2052
 45040 OH2         -0.9260   -22.9140    29.1570 O.3    8710  TIP8560    -0.4105
 45041 H1          -0.4680   -23.5440    28.6010 H      8710  TIP8560     0.2052
 45042 H2          -0.3410   -22.7840    29.9040 H      8710  TIP8560     0.2052
 45043 OH2        -30.5920   -22.7370   -47.3780 O.3    8711  TIP8561    -0.4105
 45044 H1         -30.7880   -23.6680   -47.2790 H      8711  TIP8561     0.2052
 45045 H2         -31.1570   -22.3020   -46.7390 H      8711  TIP8561     0.2052
 45046 OH2         12.3830   -30.4920    46.1990 O.3    8712  TIP8562    -0.4105
 45047 H1          13.2980   -30.7720    46.1630 H      8712  TIP8562     0.2052
 45048 H2          11.9000   -31.2830    46.4410 H      8712  TIP8562     0.2052
 45049 OH2        -22.0790     4.7150   -39.5350 O.3    8713  TIP8563    -0.4105
 45050 H1         -22.0220     5.5460   -40.0060 H      8713  TIP8563     0.2052
 45051 H2         -22.7800     4.8490   -38.8970 H      8713  TIP8563     0.2052
 45052 OH2        -12.7160   -24.4930    37.7040 O.3    8714  TIP8564    -0.4105
 45053 H1         -13.1140   -25.0680    38.3580 H      8714  TIP8564     0.2052
 45054 H2         -12.2000   -23.8690    38.2160 H      8714  TIP8564     0.2052
 45055 OH2        -23.8860    10.1400   -27.6300 O.3    8715  TIP8565    -0.4105
 45056 H1         -23.1290    10.0220   -27.0570 H      8715  TIP8565     0.2052
 45057 H2         -24.3750    10.8630   -27.2370 H      8715  TIP8565     0.2052
 45058 OH2         20.0260     2.4100   -38.1980 O.3    8716  TIP8566    -0.4105
 45059 H1          20.5150     1.5920   -38.2850 H      8716  TIP8566     0.2052
 45060 H2          19.8320     2.6700   -39.0990 H      8716  TIP8566     0.2052
 45061 OH2        -21.0630   -26.8480   -50.1570 O.3    8717  TIP8567    -0.4105
 45062 H1         -20.5470   -26.0660   -50.3540 H      8717  TIP8567     0.2052
 45063 H2         -20.8040   -27.4810   -50.8270 H      8717  TIP8567     0.2052
 45064 OH2          1.6650    12.9880   -36.5470 O.3    8718  TIP8568    -0.4105
 45065 H1           2.3650    12.6390   -37.1000 H      8718  TIP8568     0.2052
 45066 H2           1.0430    12.2650   -36.4640 H      8718  TIP8568     0.2052
 45067 OH2        -22.1660   -14.8450   -41.4640 O.3    8719  TIP8569    -0.4105
 45068 H1         -21.6290   -14.4610   -40.7720 H      8719  TIP8569     0.2052
 45069 H2         -22.2410   -14.1540   -42.1220 H      8719  TIP8569     0.2052
 45070 OH2        -12.8770   -32.8620   -53.1880 O.3    8720  TIP8570    -0.4105
 45071 H1         -13.8240   -33.0030   -53.1790 H      8720  TIP8570     0.2052
 45072 H2         -12.7590   -32.0550   -53.6890 H      8720  TIP8570     0.2052
 45073 OH2        -22.5970    32.6230    30.6080 O.3    8721  TIP8571    -0.4105
 45074 H1         -23.1800    32.0820    30.0750 H      8721  TIP8571     0.2052
 45075 H2         -22.0450    31.9940    31.0730 H      8721  TIP8571     0.2052
 45076 OH2         26.3270    31.2230   -52.3040 O.3    8722  TIP8572    -0.4105
 45077 H1          25.5300    31.7510   -52.2510 H      8722  TIP8572     0.2052
 45078 H2          26.5190    31.1700   -53.2400 H      8722  TIP8572     0.2052
 45079 OH2         -4.0860    -6.7620   -47.8010 O.3    8723  TIP8573    -0.4105
 45080 H1          -4.0650    -5.8300   -47.5800 H      8723  TIP8573     0.2052
 45081 H2          -4.8820    -6.8670   -48.3230 H      8723  TIP8573     0.2052
 45082 OH2         31.4740    19.0930    51.5240 O.3    8724  TIP8574    -0.4105
 45083 H1          31.3700    19.6090    50.7250 H      8724  TIP8574     0.2052
 45084 H2          30.6500    19.2140    51.9970 H      8724  TIP8574     0.2052
 45085 OH2         31.5460     9.2830    27.9060 O.3    8725  TIP8575    -0.4105
 45086 H1          31.6760     9.6890    27.0490 H      8725  TIP8575     0.2052
 45087 H2          31.0400     9.9270    28.4020 H      8725  TIP8575     0.2052
 45088 OH2        -23.0720    26.6750   -43.1520 O.3    8726  TIP8576    -0.4105
 45089 H1         -22.8490    25.8810   -42.6660 H      8726  TIP8576     0.2052
 45090 H2         -23.2560    27.3270   -42.4750 H      8726  TIP8576     0.2052
 45091 OH2        -31.4500   -25.0110   -23.7980 O.3    8727  TIP8577    -0.4105
 45092 H1         -30.7100   -24.7750   -24.3570 H      8727  TIP8577     0.2052
 45093 H2         -31.5950   -25.9410   -23.9700 H      8727  TIP8577     0.2052
 45094 OH2          6.5680     2.0340    44.6460 O.3    8728  TIP8578    -0.4105
 45095 H1           6.7000     2.9280    44.3290 H      8728  TIP8578     0.2052
 45096 H2           5.6210     1.9020    44.6030 H      8728  TIP8578     0.2052
 45097 OH2          2.4010   -24.3680   -54.7740 O.3    8729  TIP8579    -0.4105
 45098 H1           1.4510   -24.4830   -54.7990 H      8729  TIP8579     0.2052
 45099 H2           2.5970   -24.1840   -53.8550 H      8729  TIP8579     0.2052
 45100 OH2          4.0790   -14.9650   -44.7000 O.3    8730  TIP8580    -0.4105
 45101 H1           4.9420   -15.1790   -44.3440 H      8730  TIP8580     0.2052
 45102 H2           3.4630   -15.4160   -44.1220 H      8730  TIP8580     0.2052
 45103 OH2         25.4870   -22.9320    28.0210 O.3    8731  TIP8581    -0.4105
 45104 H1          25.0000   -22.1100    27.9660 H      8731  TIP8581     0.2052
 45105 H2          25.9490   -22.9930    27.1850 H      8731  TIP8581     0.2052
 45106 OH2        -12.5560    12.8110   -47.0310 O.3    8732  TIP8582    -0.4105
 45107 H1         -13.0470    13.6330   -47.0280 H      8732  TIP8582     0.2052
 45108 H2         -12.9980    12.2700   -47.6860 H      8732  TIP8582     0.2052
 45109 OH2          0.8690    -8.0360    28.8690 O.3    8733  TIP8583    -0.4105
 45110 H1           0.6640    -8.0800    27.9350 H      8733  TIP8583     0.2052
 45111 H2           1.6030    -7.4230    28.9250 H      8733  TIP8583     0.2052
 45112 OH2         10.5730    10.0630    27.6540 O.3    8734  TIP8584    -0.4105
 45113 H1          11.2700    10.5710    28.0690 H      8734  TIP8584     0.2052
 45114 H2          10.0890     9.6790    28.3850 H      8734  TIP8584     0.2052
 45115 OH2        -13.3680    19.5860   -22.0220 O.3    8735  TIP8585    -0.4105
 45116 H1         -13.8500    20.3540   -21.7160 H      8735  TIP8585     0.2052
 45117 H2         -13.4040    18.9720   -21.2880 H      8735  TIP8585     0.2052
 45118 OH2          6.5860   -31.8540   -50.5930 O.3    8736  TIP8586    -0.4105
 45119 H1           7.2150   -31.9000   -49.8730 H      8736  TIP8586     0.2052
 45120 H2           5.8490   -31.3590   -50.2350 H      8736  TIP8586     0.2052
 45121 OH2         -1.2260    10.3770   -23.2860 O.3    8737  TIP8587    -0.4105
 45122 H1          -1.2350    10.2190   -24.2300 H      8737  TIP8587     0.2052
 45123 H2          -0.3040    10.5240   -23.0760 H      8737  TIP8587     0.2052
 45124 OH2         23.2510     5.0250   -52.7020 O.3    8738  TIP8588    -0.4105
 45125 H1          23.0260     5.4970   -51.9000 H      8738  TIP8588     0.2052
 45126 H2          22.6980     4.2450   -52.6850 H      8738  TIP8588     0.2052
 45127 OH2        -11.0240   -32.9790   -43.8230 O.3    8739  TIP8589    -0.4105
 45128 H1         -11.3160   -33.7990   -44.2210 H      8739  TIP8589     0.2052
 45129 H2         -10.5070   -33.2500   -43.0650 H      8739  TIP8589     0.2052
 45130 OH2        -23.6850    29.8660    22.9880 O.3    8740  TIP8590    -0.4105
 45131 H1         -23.7330    28.9140    22.8960 H      8740  TIP8590     0.2052
 45132 H2         -23.3210    30.1690    22.1570 H      8740  TIP8590     0.2052
 45133 OH2         23.8260    -9.1880   -48.1050 O.3    8741  TIP8591    -0.4105
 45134 H1          22.9480    -9.5600   -48.1920 H      8741  TIP8591     0.2052
 45135 H2          24.0900    -8.9840   -49.0020 H      8741  TIP8591     0.2052
 45136 OH2        -32.3320     6.8810    54.7170 O.3    8742  TIP8592    -0.4105
 45137 H1         -32.1530     6.3590    53.9350 H      8742  TIP8592     0.2052
 45138 H2         -32.2240     7.7880    54.4300 H      8742  TIP8592     0.2052
 45139 OH2         10.2040    19.7280    49.3710 O.3    8743  TIP8593    -0.4105
 45140 H1          10.0360    19.5870    48.4390 H      8743  TIP8593     0.2052
 45141 H2           9.3540    19.9770    49.7330 H      8743  TIP8593     0.2052
 45142 OH2         32.4850    11.5920    53.4810 O.3    8744  TIP8594    -0.4105
 45143 H1          33.1590    11.0450    53.8850 H      8744  TIP8594     0.2052
 45144 H2          31.6750    11.3410    53.9230 H      8744  TIP8594     0.2052
 45145 OH2        -20.2030    29.3820   -51.7380 O.3    8745  TIP8595    -0.4105
 45146 H1         -20.8250    29.4370   -51.0120 H      8745  TIP8595     0.2052
 45147 H2         -20.7000    28.9770   -52.4490 H      8745  TIP8595     0.2052
 45148 OH2         15.8160    -9.1220   -48.8710 O.3    8746  TIP8596    -0.4105
 45149 H1          15.4240    -8.3260   -49.2300 H      8746  TIP8596     0.2052
 45150 H2          15.3390    -9.8360   -49.2930 H      8746  TIP8596     0.2052
 45151 OH2         13.9310    23.3730    44.1330 O.3    8747  TIP8597    -0.4105
 45152 H1          13.2870    24.0760    44.0530 H      8747  TIP8597     0.2052
 45153 H2          13.8530    23.0770    45.0400 H      8747  TIP8597     0.2052
 45154 OH2          2.2760   -10.2570    36.8100 O.3    8748  TIP8598    -0.4105
 45155 H1           1.3720   -10.2540    37.1250 H      8748  TIP8598     0.2052
 45156 H2           2.7920    -9.9610    37.5590 H      8748  TIP8598     0.2052
 45157 OH2        -24.4100   -18.2600    28.1640 O.3    8749  TIP8599    -0.4105
 45158 H1         -24.4200   -17.9290    29.0620 H      8749  TIP8599     0.2052
 45159 H2         -25.1610   -18.8530    28.1190 H      8749  TIP8599     0.2052
 45160 OH2        -31.2270    -3.5450    42.6390 O.3    8750  TIP8600    -0.4105
 45161 H1         -30.7500    -3.9420    43.3680 H      8750  TIP8600     0.2052
 45162 H2         -30.7420    -2.7430    42.4440 H      8750  TIP8600     0.2052
 45163 OH2        -17.9250   -10.9090    40.9250 O.3    8751  TIP8601    -0.4105
 45164 H1         -17.4580   -11.7300    41.0770 H      8751  TIP8601     0.2052
 45165 H2         -17.2350   -10.2490    40.8610 H      8751  TIP8601     0.2052
 45166 OH2         -0.7570   -17.2930    44.6160 O.3    8752  TIP8602    -0.4105
 45167 H1           0.1790   -17.4580    44.7310 H      8752  TIP8602     0.2052
 45168 H2          -0.9590   -17.6530    43.7530 H      8752  TIP8602     0.2052
 45169 OH2         -8.7780   -31.6870    43.3280 O.3    8753  TIP8603    -0.4105
 45170 H1          -9.3390   -32.2860    42.8360 H      8753  TIP8603     0.2052
 45171 H2          -8.6100   -32.1400    44.1550 H      8753  TIP8603     0.2052
 45172 OH2         19.9480     3.9020    34.4670 O.3    8754  TIP8604    -0.4105
 45173 H1          20.5840     3.3040    34.8590 H      8754  TIP8604     0.2052
 45174 H2          20.4810     4.5770    34.0460 H      8754  TIP8604     0.2052
 45175 OH2         27.4380    28.1230    34.3490 O.3    8755  TIP8605    -0.4105
 45176 H1          27.4870    27.8640    33.4290 H      8755  TIP8605     0.2052
 45177 H2          28.2610    27.8150    34.7290 H      8755  TIP8605     0.2052
 45178 OH2          1.2080   -20.6530   -34.1980 O.3    8756  TIP8606    -0.4105
 45179 H1           1.4620   -20.5410   -35.1140 H      8756  TIP8606     0.2052
 45180 H2           0.5270   -19.9960   -34.0560 H      8756  TIP8606     0.2052
 45181 OH2        -17.4310    -6.4140    38.8930 O.3    8757  TIP8607    -0.4105
 45182 H1         -18.3360    -6.7220    38.9250 H      8757  TIP8607     0.2052
 45183 H2         -17.0270    -6.7730    39.6830 H      8757  TIP8607     0.2052
 45184 OH2        -27.6740   -16.8470   -45.7730 O.3    8758  TIP8608    -0.4105
 45185 H1         -28.1680   -16.4660   -46.4990 H      8758  TIP8608     0.2052
 45186 H2         -27.4170   -16.0960   -45.2370 H      8758  TIP8608     0.2052
 45187 OH2        -23.5030     3.1050    24.5020 O.3    8759  TIP8609    -0.4105
 45188 H1         -23.5790     2.5020    23.7630 H      8759  TIP8609     0.2052
 45189 H2         -24.1590     2.8010    25.1280 H      8759  TIP8609     0.2052
 45190 OH2        -21.2270   -16.0370    43.3070 O.3    8760  TIP8610    -0.4105
 45191 H1         -22.0040   -16.2130    42.7770 H      8760  TIP8610     0.2052
 45192 H2         -21.5300   -16.1160    44.2110 H      8760  TIP8610     0.2052
 45193 OH2         -0.1440    21.1550   -24.4280 O.3    8761  TIP8611    -0.4105
 45194 H1          -0.3560    20.3190   -24.0140 H      8761  TIP8611     0.2052
 45195 H2          -0.9000    21.7130   -24.2420 H      8761  TIP8611     0.2052
 45196 OH2         14.5210   -13.6300   -41.8640 O.3    8762  TIP8612    -0.4105
 45197 H1          13.9170   -13.3430   -41.1790 H      8762  TIP8612     0.2052
 45198 H2          14.7160   -14.5410   -41.6450 H      8762  TIP8612     0.2052
 45199 OH2          0.7660     6.9100    37.7150 O.3    8763  TIP8613    -0.4105
 45200 H1           0.1190     6.2060    37.7600 H      8763  TIP8613     0.2052
 45201 H2           0.3790     7.6240    38.2220 H      8763  TIP8613     0.2052
 45202 OH2        -20.5930   -13.9160    30.9100 O.3    8764  TIP8614    -0.4105
 45203 H1         -21.0750   -14.6080    30.4570 H      8764  TIP8614     0.2052
 45204 H2         -20.6720   -14.1350    31.8380 H      8764  TIP8614     0.2052
 45205 OH2         -3.0780   -11.9330   -16.6020 O.3    8765  TIP8615    -0.4105
 45206 H1          -3.1760   -11.0830   -16.1730 H      8765  TIP8615     0.2052
 45207 H2          -3.9110   -12.0720   -17.0520 H      8765  TIP8615     0.2052
 45208 OH2         12.0330   -22.4950   -41.0830 O.3    8766  TIP8616    -0.4105
 45209 H1          11.7480   -21.6150   -40.8360 H      8766  TIP8616     0.2052
 45210 H2          11.2380   -22.9250   -41.3980 H      8766  TIP8616     0.2052
 45211 OH2         23.9390    -9.1520    20.3770 O.3    8767  TIP8617    -0.4105
 45212 H1          23.2380    -9.1650    21.0300 H      8767  TIP8617     0.2052
 45213 H2          24.1120    -8.2220    20.2300 H      8767  TIP8617     0.2052
 45214 OH2        -14.2360    29.1750    51.6210 O.3    8768  TIP8618    -0.4105
 45215 H1         -13.7620    28.5080    51.1240 H      8768  TIP8618     0.2052
 45216 H2         -15.0700    28.7610    51.8430 H      8768  TIP8618     0.2052
 45217 OH2        -31.0890    28.0940    32.0260 O.3    8769  TIP8619    -0.4105
 45218 H1         -31.1240    29.0390    32.1740 H      8769  TIP8619     0.2052
 45219 H2         -31.6390    27.7230    32.7160 H      8769  TIP8619     0.2052
 45220 OH2        -24.5280   -20.8750   -29.1970 O.3    8770  TIP8620    -0.4105
 45221 H1         -25.3920   -20.7360   -29.5840 H      8770  TIP8620     0.2052
 45222 H2         -24.1800   -21.6400   -29.6550 H      8770  TIP8620     0.2052
 45223 OH2        -24.6060   -25.3700   -44.2420 O.3    8771  TIP8621    -0.4105
 45224 H1         -25.5400   -25.1610   -44.2280 H      8771  TIP8621     0.2052
 45225 H2         -24.2720   -25.0330   -43.4110 H      8771  TIP8621     0.2052
 45226 OH2        -29.3980    -1.8730    27.7940 O.3    8772  TIP8622    -0.4105
 45227 H1         -28.5930    -2.0640    27.3140 H      8772  TIP8622     0.2052
 45228 H2         -29.1700    -2.0180    28.7120 H      8772  TIP8622     0.2052
 45229 OH2         29.0450    32.2320    49.5950 O.3    8773  TIP8623    -0.4105
 45230 H1          29.2580    31.5250    48.9860 H      8773  TIP8623     0.2052
 45231 H2          29.7680    32.8520    49.5050 H      8773  TIP8623     0.2052
 45232 OH2        -25.3510   -17.4330    22.5460 O.3    8774  TIP8624    -0.4105
 45233 H1         -24.6150   -16.8750    22.7990 H      8774  TIP8624     0.2052
 45234 H2         -26.0200   -17.2630    23.2090 H      8774  TIP8624     0.2052
 45235 OH2         23.4530    30.4520    42.2470 O.3    8775  TIP8625    -0.4105
 45236 H1          23.9760    31.2410    42.1040 H      8775  TIP8625     0.2052
 45237 H2          22.7740    30.4880    41.5730 H      8775  TIP8625     0.2052
 45238 OH2         -4.6430    20.0140   -36.9150 O.3    8776  TIP8626    -0.4105
 45239 H1          -4.0260    20.7110   -37.1360 H      8776  TIP8626     0.2052
 45240 H2          -4.4900    19.3390   -37.5760 H      8776  TIP8626     0.2052
 45241 OH2        -28.1690    -2.3480    48.9580 O.3    8777  TIP8627    -0.4105
 45242 H1         -27.5840    -2.6310    48.2550 H      8777  TIP8627     0.2052
 45243 H2         -29.0260    -2.6960    48.7110 H      8777  TIP8627     0.2052
 45244 OH2         25.2920     1.4470    23.1280 O.3    8778  TIP8628    -0.4105
 45245 H1          24.4840     1.9590    23.1080 H      8778  TIP8628     0.2052
 45246 H2          25.0190     0.5570    22.9030 H      8778  TIP8628     0.2052
 45247 OH2         -1.9270    15.6360    48.7020 O.3    8779  TIP8629    -0.4105
 45248 H1          -2.1230    15.9230    47.8100 H      8779  TIP8629     0.2052
 45249 H2          -1.2250    14.9930    48.5980 H      8779  TIP8629     0.2052
 45250 OH2         27.8490   -17.3960    21.6010 O.3    8780  TIP8630    -0.4105
 45251 H1          27.5940   -16.7570    22.2670 H      8780  TIP8630     0.2052
 45252 H2          27.3080   -17.1790    20.8420 H      8780  TIP8630     0.2052
 45253 OH2        -18.7120    28.7860   -35.3730 O.3    8781  TIP8631    -0.4105
 45254 H1         -19.2420    29.5140   -35.6960 H      8781  TIP8631     0.2052
 45255 H2         -17.8190    29.1320   -35.3490 H      8781  TIP8631     0.2052
 45256 OH2          3.9250   -18.2240   -29.1280 O.3    8782  TIP8632    -0.4105
 45257 H1           4.2530   -18.5280   -28.2810 H      8782  TIP8632     0.2052
 45258 H2           4.3850   -18.7640   -29.7710 H      8782  TIP8632     0.2052
 45259 OH2        -22.1320   -24.1660   -35.4290 O.3    8783  TIP8633    -0.4105
 45260 H1         -22.3460   -24.9360   -35.9550 H      8783  TIP8633     0.2052
 45261 H2         -21.9770   -23.4730   -36.0700 H      8783  TIP8633     0.2052
 45262 OH2         16.9920     0.2560   -34.3740 O.3    8784  TIP8634    -0.4105
 45263 H1          17.4810    -0.2980   -33.7660 H      8784  TIP8634     0.2052
 45264 H2          17.6620     0.6510   -34.9310 H      8784  TIP8634     0.2052
 45265 OH2         16.8540   -27.5670    32.5260 O.3    8785  TIP8635    -0.4105
 45266 H1          17.3950   -27.3970    31.7540 H      8785  TIP8635     0.2052
 45267 H2          17.3270   -28.2470    33.0050 H      8785  TIP8635     0.2052
 45268 OH2         -3.1270    20.1300    23.3030 O.3    8786  TIP8636    -0.4105
 45269 H1          -3.4670    20.1840    22.4100 H      8786  TIP8636     0.2052
 45270 H2          -2.2390    19.7870    23.2000 H      8786  TIP8636     0.2052
 45271 OH2         14.1750    30.2000    52.4470 O.3    8787  TIP8637    -0.4105
 45272 H1          14.2550    29.2540    52.5740 H      8787  TIP8637     0.2052
 45273 H2          13.3990    30.3040    51.8960 H      8787  TIP8637     0.2052
 45274 OH2        -18.3660   -21.1830    35.9750 O.3    8788  TIP8638    -0.4105
 45275 H1         -19.1680   -20.8380    36.3670 H      8788  TIP8638     0.2052
 45276 H2         -17.7290   -20.4750    36.0710 H      8788  TIP8638     0.2052
 45277 OH2          5.9790   -25.8340    48.1350 O.3    8789  TIP8639    -0.4105
 45278 H1           6.9180   -25.9050    48.3040 H      8789  TIP8639     0.2052
 45279 H2           5.6460   -25.2950    48.8530 H      8789  TIP8639     0.2052
 45280 OH2         -2.2390   -18.4250   -24.0280 O.3    8790  TIP8640    -0.4105
 45281 H1          -1.9500   -18.4370   -23.1160 H      8790  TIP8640     0.2052
 45282 H2          -2.5020   -19.3280   -24.2080 H      8790  TIP8640     0.2052
 45283 OH2         16.0940    16.1250   -51.1270 O.3    8791  TIP8641    -0.4105
 45284 H1          15.7830    17.0180   -50.9850 H      8791  TIP8641     0.2052
 45285 H2          15.8720    15.6610   -50.3200 H      8791  TIP8641     0.2052
 45286 OH2        -31.9640   -10.1780    29.2290 O.3    8792  TIP8642    -0.4105
 45287 H1         -31.3160    -9.4740    29.2670 H      8792  TIP8642     0.2052
 45288 H2         -31.4630   -10.9740    29.4080 H      8792  TIP8642     0.2052
 45289 OH2        -21.2370    25.5940    44.8140 O.3    8793  TIP8643    -0.4105
 45290 H1         -21.4750    25.0800    45.5860 H      8793  TIP8643     0.2052
 45291 H2         -20.2800    25.6220    44.8300 H      8793  TIP8643     0.2052
 45292 OH2         22.2270   -19.5710   -25.6100 O.3    8794  TIP8644    -0.4105
 45293 H1          21.8760   -19.0740   -24.8710 H      8794  TIP8644     0.2052
 45294 H2          21.5800   -20.2580   -25.7670 H      8794  TIP8644     0.2052
 45295 OH2         12.0970   -17.6560   -41.5270 O.3    8795  TIP8645    -0.4105
 45296 H1          11.2890   -17.1550   -41.4180 H      8795  TIP8645     0.2052
 45297 H2          11.8460   -18.3990   -42.0770 H      8795  TIP8645     0.2052
 45298 OH2        -19.7000    28.7010    17.2570 O.3    8796  TIP8646    -0.4105
 45299 H1         -19.1810    29.5030    17.3250 H      8796  TIP8646     0.2052
 45300 H2         -19.0850    27.9990    17.4680 H      8796  TIP8646     0.2052
 45301 OH2          7.3460   -31.8990   -39.1150 O.3    8797  TIP8647    -0.4105
 45302 H1           7.3460   -32.7360   -39.5800 H      8797  TIP8647     0.2052
 45303 H2           6.8580   -32.0710   -38.3100 H      8797  TIP8647     0.2052
 45304 OH2        -31.3060   -12.2510   -29.3490 O.3    8798  TIP8648    -0.4105
 45305 H1         -31.4080   -12.5090   -28.4330 H      8798  TIP8648     0.2052
 45306 H2         -30.5290   -11.6920   -29.3570 H      8798  TIP8648     0.2052
 45307 OH2          5.7310    14.0840   -51.9140 O.3    8799  TIP8649    -0.4105
 45308 H1           5.0340    14.0540   -51.2590 H      8799  TIP8649     0.2052
 45309 H2           6.5330    14.2010   -51.4040 H      8799  TIP8649     0.2052
 45310 OH2        -28.1890     2.2870    41.5520 O.3    8800  TIP8650    -0.4105
 45311 H1         -28.1560     1.3390    41.4290 H      8800  TIP8650     0.2052
 45312 H2         -28.9050     2.5780    40.9860 H      8800  TIP8650     0.2052
 45313 OH2         17.4320    -1.6650   -55.4760 O.3    8801  TIP8651    -0.4105
 45314 H1          17.5020    -1.4190   -56.3980 H      8801  TIP8651     0.2052
 45315 H2          18.2600    -2.1060   -55.2820 H      8801  TIP8651     0.2052
 45316 OH2          7.5360    19.4860   -34.8480 O.3    8802  TIP8652    -0.4105
 45317 H1           7.5270    18.5780   -34.5450 H      8802  TIP8652     0.2052
 45318 H2           8.3710    19.5770   -35.3090 H      8802  TIP8652     0.2052
 45319 OH2         22.3250   -32.9000   -26.0480 O.3    8803  TIP8653    -0.4105
 45320 H1          21.5180   -33.1300   -25.5880 H      8803  TIP8653     0.2052
 45321 H2          22.7170   -32.2090   -25.5130 H      8803  TIP8653     0.2052
 45322 OH2         18.8200   -32.8340    31.8390 O.3    8804  TIP8654    -0.4105
 45323 H1          18.2690   -32.0550    31.7640 H      8804  TIP8654     0.2052
 45324 H2          18.9950   -32.9140    32.7760 H      8804  TIP8654     0.2052
 45325 OH2        -21.7200   -18.0930    27.3810 O.3    8805  TIP8655    -0.4105
 45326 H1         -22.6020   -18.1530    27.7470 H      8805  TIP8655     0.2052
 45327 H2         -21.5960   -18.9220    26.9180 H      8805  TIP8655     0.2052
 45328 OH2        -19.4190     2.4980    49.3170 O.3    8806  TIP8656    -0.4105
 45329 H1         -18.8040     2.3310    48.6030 H      8806  TIP8656     0.2052
 45330 H2         -20.2770     2.2880    48.9480 H      8806  TIP8656     0.2052
 45331 OH2         28.4890    -1.5570   -39.2170 O.3    8807  TIP8657    -0.4105
 45332 H1          29.1490    -0.8970   -39.4280 H      8807  TIP8657     0.2052
 45333 H2          28.7640    -1.9080   -38.3690 H      8807  TIP8657     0.2052
 45334 OH2        -16.9610     2.9700    21.4370 O.3    8808  TIP8658    -0.4105
 45335 H1         -16.4540     3.7760    21.3310 H      8808  TIP8658     0.2052
 45336 H2         -16.3310     2.3340    21.7750 H      8808  TIP8658     0.2052
 45337 OH2         -4.6580   -23.8790    47.4730 O.3    8809  TIP8659    -0.4105
 45338 H1          -4.5990   -24.7390    47.0580 H      8809  TIP8659     0.2052
 45339 H2          -3.9840   -23.3560    47.0400 H      8809  TIP8659     0.2052
 45340 OH2         25.3480   -10.4470    32.3570 O.3    8810  TIP8660    -0.4105
 45341 H1          25.2860    -9.8500    33.1020 H      8810  TIP8660     0.2052
 45342 H2          25.4500   -11.3130    32.7510 H      8810  TIP8660     0.2052
 45343 OH2         33.0210   -23.2400    41.2030 O.3    8811  TIP8661    -0.4105
 45344 H1          32.3860   -22.8790    40.5850 H      8811  TIP8661     0.2052
 45345 H2          32.6250   -24.0570    41.5050 H      8811  TIP8661     0.2052
 45346 OH2         12.6300   -13.0150   -40.1330 O.3    8812  TIP8662    -0.4105
 45347 H1          11.9960   -12.5000   -39.6340 H      8812  TIP8662     0.2052
 45348 H2          12.4950   -13.9150   -39.8360 H      8812  TIP8662     0.2052
 45349 OH2         18.3550    -6.3980    39.7960 O.3    8813  TIP8663    -0.4105
 45350 H1          17.9710    -6.1720    38.9490 H      8813  TIP8663     0.2052
 45351 H2          18.4230    -5.5630    40.2600 H      8813  TIP8663     0.2052
 45352 OH2        -20.9540   -30.0830    43.9910 O.3    8814  TIP8664    -0.4105
 45353 H1         -20.6030   -30.9730    44.0200 H      8814  TIP8664     0.2052
 45354 H2         -21.8310   -30.1580    44.3670 H      8814  TIP8664     0.2052
 45355 OH2        -11.5810    17.5230   -28.8530 O.3    8815  TIP8665    -0.4105
 45356 H1         -11.8190    16.9510   -28.1230 H      8815  TIP8665     0.2052
 45357 H2         -12.3060    18.1460   -28.9150 H      8815  TIP8665     0.2052
 45358 OH2        -21.2470    14.5290   -35.4470 O.3    8816  TIP8666    -0.4105
 45359 H1         -21.4490    13.5940   -35.4220 H      8816  TIP8666     0.2052
 45360 H2         -21.1700    14.7330   -36.3790 H      8816  TIP8666     0.2052
 45361 OH2        -10.3740   -28.4070    19.5570 O.3    8817  TIP8667    -0.4105
 45362 H1         -10.2630   -27.8750    18.7690 H      8817  TIP8667     0.2052
 45363 H2         -10.4150   -29.3080    19.2350 H      8817  TIP8667     0.2052
 45364 OH2        -27.2920    26.4770    28.8800 O.3    8818  TIP8668    -0.4105
 45365 H1         -28.0240    26.0430    28.4410 H      8818  TIP8668     0.2052
 45366 H2         -26.6340    26.5910    28.1940 H      8818  TIP8668     0.2052
 45367 OH2         -5.8520    15.4870    25.9650 O.3    8819  TIP8669    -0.4105
 45368 H1          -6.1780    15.1520    25.1300 H      8819  TIP8669     0.2052
 45369 H2          -5.2580    16.1980    25.7240 H      8819  TIP8669     0.2052
 45370 OH2         29.0390     3.8190   -43.7330 O.3    8820  TIP8670    -0.4105
 45371 H1          29.9760     3.7230   -43.9070 H      8820  TIP8670     0.2052
 45372 H2          28.8960     3.3360   -42.9200 H      8820  TIP8670     0.2052
 45373 OH2         32.8210   -24.3100    52.7300 O.3    8821  TIP8671    -0.4105
 45374 H1          32.5070   -25.1880    52.9440 H      8821  TIP8671     0.2052
 45375 H2          32.1130   -23.7280    53.0070 H      8821  TIP8671     0.2052
 45376 OH2         22.4460   -24.7620    55.4060 O.3    8822  TIP8672    -0.4105
 45377 H1          22.1770   -24.4930    54.5280 H      8822  TIP8672     0.2052
 45378 H2          22.6890   -23.9460    55.8440 H      8822  TIP8672     0.2052
 45379 OH2        -18.6310    22.6700   -32.1000 O.3    8823  TIP8673    -0.4105
 45380 H1         -19.3400    23.1730   -31.6970 H      8823  TIP8673     0.2052
 45381 H2         -18.2430    23.2700   -32.7370 H      8823  TIP8673     0.2052
 45382 OH2         -5.9270   -27.5870   -49.3090 O.3    8824  TIP8674    -0.4105
 45383 H1          -6.1430   -26.8290   -49.8510 H      8824  TIP8674     0.2052
 45384 H2          -5.7020   -28.2740   -49.9360 H      8824  TIP8674     0.2052
 45385 OH2          4.9970   -17.1200   -53.3090 O.3    8825  TIP8675    -0.4105
 45386 H1           5.1720   -16.9580   -52.3820 H      8825  TIP8675     0.2052
 45387 H2           4.0580   -17.3010   -53.3470 H      8825  TIP8675     0.2052
 45388 OH2          5.5850   -12.4480    34.6080 O.3    8826  TIP8676    -0.4105
 45389 H1           4.7210   -12.1330    34.3460 H      8826  TIP8676     0.2052
 45390 H2           5.5160   -13.4020    34.5660 H      8826  TIP8676     0.2052
 45391 OH2         20.5280    29.3500   -40.9200 O.3    8827  TIP8677    -0.4105
 45392 H1          21.4200    29.5460   -41.2040 H      8827  TIP8677     0.2052
 45393 H2          20.5020    28.3950   -40.8530 H      8827  TIP8677     0.2052
 45394 OH2          9.2860    -1.3760   -36.6180 O.3    8828  TIP8678    -0.4105
 45395 H1          10.0180    -1.8890   -36.2760 H      8828  TIP8678     0.2052
 45396 H2           8.6680    -1.3260   -35.8890 H      8828  TIP8678     0.2052
 45397 OH2        -22.2440    -5.1700   -35.8950 O.3    8829  TIP8679    -0.4105
 45398 H1         -21.3720    -5.2480   -36.2830 H      8829  TIP8679     0.2052
 45399 H2         -22.3140    -4.2480   -35.6480 H      8829  TIP8679     0.2052
 45400 OH2         28.3300    15.7220    39.9850 O.3    8830  TIP8680    -0.4105
 45401 H1          28.6850    15.5590    40.8590 H      8830  TIP8680     0.2052
 45402 H2          27.3800    15.6720    40.0990 H      8830  TIP8680     0.2052
 45403 OH2        -23.9220     1.6120   -37.8510 O.3    8831  TIP8681    -0.4105
 45404 H1         -23.1430     1.0560   -37.8590 H      8831  TIP8681     0.2052
 45405 H2         -24.6400     1.0170   -37.6370 H      8831  TIP8681     0.2052
 45406 OH2         31.7540   -11.9070    52.7320 O.3    8832  TIP8682    -0.4105
 45407 H1          31.1600   -12.0960    52.0050 H      8832  TIP8682     0.2052
 45408 H2          32.2470   -11.1390    52.4460 H      8832  TIP8682     0.2052
 45409 OH2          2.3250   -12.8680   -30.4780 O.3    8833  TIP8683    -0.4105
 45410 H1           1.3810   -12.8790   -30.3210 H      8833  TIP8683     0.2052
 45411 H2           2.5480   -13.7790   -30.6680 H      8833  TIP8683     0.2052
 45412 OH2        -29.3250   -14.5420   -27.9760 O.3    8834  TIP8684    -0.4105
 45413 H1         -28.9370   -14.7390   -27.1230 H      8834  TIP8684     0.2052
 45414 H2         -28.6370   -14.0770   -28.4510 H      8834  TIP8684     0.2052
 45415 OH2         10.5720   -11.2820   -33.6120 O.3    8835  TIP8685    -0.4105
 45416 H1          10.7830   -10.7100   -34.3500 H      8835  TIP8685     0.2052
 45417 H2           9.7400   -10.9450   -33.2780 H      8835  TIP8685     0.2052
 45418 OH2        -11.6300   -12.7370    36.1220 O.3    8836  TIP8686    -0.4105
 45419 H1         -11.8570   -13.6170    36.4230 H      8836  TIP8686     0.2052
 45420 H2         -10.8040   -12.5380    36.5630 H      8836  TIP8686     0.2052
 45421 OH2         -5.8020    10.0740   -42.2710 O.3    8837  TIP8687    -0.4105
 45422 H1          -5.5040     9.7260   -43.1120 H      8837  TIP8687     0.2052
 45423 H2          -4.9970    10.2260   -41.7760 H      8837  TIP8687     0.2052
 45424 OH2          9.8780   -14.0940    24.5240 O.3    8838  TIP8688    -0.4105
 45425 H1          10.5160   -14.6160    24.0380 H      8838  TIP8688     0.2052
 45426 H2          10.3440   -13.8220    25.3150 H      8838  TIP8688     0.2052
 45427 OH2          5.5180    25.0940    28.7730 O.3    8839  TIP8689    -0.4105
 45428 H1           6.0190    24.3680    29.1460 H      8839  TIP8689     0.2052
 45429 H2           4.6380    24.7390    28.6490 H      8839  TIP8689     0.2052
 45430 OH2        -28.8060    21.3520   -29.3380 O.3    8840  TIP8690    -0.4105
 45431 H1         -28.5360    21.2410   -28.4270 H      8840  TIP8690     0.2052
 45432 H2         -28.2380    22.0460   -29.6740 H      8840  TIP8690     0.2052
 45433 OH2         -9.7570   -28.4110   -50.5710 O.3    8841  TIP8691    -0.4105
 45434 H1         -10.5600   -28.0840   -50.1660 H      8841  TIP8691     0.2052
 45435 H2          -9.2580   -27.6220   -50.7850 H      8841  TIP8691     0.2052
 45436 OH2         -3.0760   -30.3040   -48.8480 O.3    8842  TIP8692    -0.4105
 45437 H1          -2.3310   -30.2640   -49.4480 H      8842  TIP8692     0.2052
 45438 H2          -3.8440   -30.2160   -49.4120 H      8842  TIP8692     0.2052
 45439 OH2        -25.0180     6.3530    50.2810 O.3    8843  TIP8693    -0.4105
 45440 H1         -25.0290     5.4790    50.6700 H      8843  TIP8693     0.2052
 45441 H2         -25.3170     6.2190    49.3810 H      8843  TIP8693     0.2052
 45442 OH2         23.8380    25.2700    43.1090 O.3    8844  TIP8694    -0.4105
 45443 H1          23.6340    24.4020    42.7590 H      8844  TIP8694     0.2052
 45444 H2          24.4270    25.1000    43.8440 H      8844  TIP8694     0.2052
 45445 OH2         -7.5700    -1.5160    35.7320 O.3    8845  TIP8695    -0.4105
 45446 H1          -6.8250    -1.5030    36.3330 H      8845  TIP8695     0.2052
 45447 H2          -7.1750    -1.5600    34.8610 H      8845  TIP8695     0.2052
 45448 OH2          2.8640    14.7880    50.3920 O.3    8846  TIP8696    -0.4105
 45449 H1           3.5850    15.2620    49.9780 H      8846  TIP8696     0.2052
 45450 H2           2.6720    14.0690    49.7910 H      8846  TIP8696     0.2052
 45451 OH2         32.8090    23.1320    42.0150 O.3    8847  TIP8697    -0.4105
 45452 H1          32.1130    22.9290    42.6390 H      8847  TIP8697     0.2052
 45453 H2          32.4080    23.7450    41.3990 H      8847  TIP8697     0.2052
 45454 OH2         -7.7660   -32.3280   -33.9540 O.3    8848  TIP8698    -0.4105
 45455 H1          -7.9710   -32.0350   -33.0660 H      8848  TIP8698     0.2052
 45456 H2          -6.9470   -31.8830   -34.1700 H      8848  TIP8698     0.2052
 45457 OH2         29.8970    -3.0680    50.8350 O.3    8849  TIP8699    -0.4105
 45458 H1          30.8540    -3.0410    50.8340 H      8849  TIP8699     0.2052
 45459 H2          29.6620    -3.2840    49.9320 H      8849  TIP8699     0.2052
 45460 OH2        -16.5180    27.4790    25.0100 O.3    8850  TIP8700    -0.4105
 45461 H1         -16.1440    26.7510    24.5140 H      8850  TIP8700     0.2052
 45462 H2         -16.7650    28.1210    24.3430 H      8850  TIP8700     0.2052
 45463 OH2         25.3110    30.9300    49.4100 O.3    8851  TIP8701    -0.4105
 45464 H1          25.6370    31.7380    49.0140 H      8851  TIP8701     0.2052
 45465 H2          24.4110    30.8540    49.0920 H      8851  TIP8701     0.2052
 45466 OH2         11.8030     4.0670   -54.8440 O.3    8852  TIP8702    -0.4105
 45467 H1          12.3810     3.4140   -55.2400 H      8852  TIP8702     0.2052
 45468 H2          12.3950     4.7490   -54.5260 H      8852  TIP8702     0.2052
 45469 OH2        -29.9890    -6.5720   -45.4480 O.3    8853  TIP8703    -0.4105
 45470 H1         -30.0250    -7.4360   -45.0380 H      8853  TIP8703     0.2052
 45471 H2         -29.0540    -6.3880   -45.5390 H      8853  TIP8703     0.2052
 45472 OH2          5.8280   -17.6460   -39.6880 O.3    8854  TIP8704    -0.4105
 45473 H1           6.3120   -16.8790   -39.9930 H      8854  TIP8704     0.2052
 45474 H2           6.3840   -18.0250   -39.0070 H      8854  TIP8704     0.2052
 45475 OH2         24.0640     1.9480   -27.6140 O.3    8855  TIP8705    -0.4105
 45476 H1          23.9070     1.6520   -28.5110 H      8855  TIP8705     0.2052
 45477 H2          24.9840     2.2150   -27.6070 H      8855  TIP8705     0.2052
 45478 OH2         -0.2250   -25.8890    48.9610 O.3    8856  TIP8706    -0.4105
 45479 H1          -0.6520   -25.4390    49.6900 H      8856  TIP8706     0.2052
 45480 H2           0.7080   -25.8480    49.1670 H      8856  TIP8706     0.2052
 45481 OH2        -16.7410    14.0310   -28.9300 O.3    8857  TIP8707    -0.4105
 45482 H1         -15.9590    14.0790   -29.4800 H      8857  TIP8707     0.2052
 45483 H2         -16.7930    14.8910   -28.5120 H      8857  TIP8707     0.2052
 45484 OH2         -6.2700     6.1120   -26.9340 O.3    8858  TIP8708    -0.4105
 45485 H1          -7.1280     5.7700   -27.1870 H      8858  TIP8708     0.2052
 45486 H2          -5.8100     5.3580   -26.5660 H      8858  TIP8708     0.2052
 45487 OH2        -20.3300    16.4200   -55.3320 O.3    8859  TIP8709    -0.4105
 45488 H1         -21.0760    16.7960   -54.8650 H      8859  TIP8709     0.2052
 45489 H2         -20.6980    16.1050   -56.1580 H      8859  TIP8709     0.2052
 45490 OH2        -30.3160   -11.2530    44.3490 O.3    8860  TIP8710    -0.4105
 45491 H1         -29.5520   -11.7520    44.6370 H      8860  TIP8710     0.2052
 45492 H2         -30.5750   -10.7440    45.1180 H      8860  TIP8710     0.2052
 45493 OH2        -11.1570    26.4350   -47.7610 O.3    8861  TIP8711    -0.4105
 45494 H1         -10.9490    26.6350   -46.8480 H      8861  TIP8711     0.2052
 45495 H2         -10.3570    26.0400   -48.1080 H      8861  TIP8711     0.2052
 45496 OH2        -21.4490    10.7100    34.5880 O.3    8862  TIP8712    -0.4105
 45497 H1         -21.8770    10.9660    35.4040 H      8862  TIP8712     0.2052
 45498 H2         -20.8160    10.0410    34.8490 H      8862  TIP8712     0.2052
 45499 OH2         14.9050   -12.4110   -31.0710 O.3    8863  TIP8713    -0.4105
 45500 H1          15.5890   -11.7710   -31.2690 H      8863  TIP8713     0.2052
 45501 H2          14.1080   -11.8890   -30.9770 H      8863  TIP8713     0.2052
 45502 OH2        -13.1370    31.7390   -40.1780 O.3    8864  TIP8714    -0.4105
 45503 H1         -12.5890    30.9980   -40.4340 H      8864  TIP8714     0.2052
 45504 H2         -13.7550    31.8420   -40.9010 H      8864  TIP8714     0.2052
 45505 OH2        -25.9620   -14.1640    45.7490 O.3    8865  TIP8715    -0.4105
 45506 H1         -26.8530   -14.2970    46.0730 H      8865  TIP8715     0.2052
 45507 H2         -25.8380   -14.8560    45.0980 H      8865  TIP8715     0.2052
 45508 OH2         -6.9520    -1.0110   -38.4160 O.3    8866  TIP8716    -0.4105
 45509 H1          -7.0600    -0.0610   -38.3720 H      8866  TIP8716     0.2052
 45510 H2          -6.6810    -1.1800   -39.3190 H      8866  TIP8716     0.2052
 45511 OH2        -29.9300    -4.1110   -42.1760 O.3    8867  TIP8717    -0.4105
 45512 H1         -30.5670    -4.5910   -42.7060 H      8867  TIP8717     0.2052
 45513 H2         -29.0860    -4.5040   -42.4010 H      8867  TIP8717     0.2052
 45514 OH2        -21.2790    -1.4320   -16.3350 O.3    8868  TIP8718    -0.4105
 45515 H1         -21.0050    -1.3370   -15.4230 H      8868  TIP8718     0.2052
 45516 H2         -21.0200    -0.6090   -16.7500 H      8868  TIP8718     0.2052
 45517 OH2          6.0390   -22.4920   -50.2750 O.3    8869  TIP8719    -0.4105
 45518 H1           5.9700   -22.3170   -51.2140 H      8869  TIP8719     0.2052
 45519 H2           5.7120   -21.6950   -49.8580 H      8869  TIP8719     0.2052
 45520 OH2         31.7910    -9.6990    31.1310 O.3    8870  TIP8720    -0.4105
 45521 H1          31.4760    -9.1580    30.4070 H      8870  TIP8720     0.2052
 45522 H2          32.0200   -10.5350    30.7240 H      8870  TIP8720     0.2052
 45523 OH2         11.8730     5.2650   -35.2390 O.3    8871  TIP8721    -0.4105
 45524 H1          12.3140     4.4550   -35.4930 H      8871  TIP8721     0.2052
 45525 H2          11.3080     5.0130   -34.5090 H      8871  TIP8721     0.2052
 45526 OH2        -30.7180   -29.8430   -42.5400 O.3    8872  TIP8722    -0.4105
 45527 H1         -30.5650   -29.0640   -43.0740 H      8872  TIP8722     0.2052
 45528 H2         -31.1200   -30.4700   -43.1410 H      8872  TIP8722     0.2052
 45529 OH2        -28.5970    28.1010    33.4360 O.3    8873  TIP8723    -0.4105
 45530 H1         -28.3890    27.1780    33.5800 H      8873  TIP8723     0.2052
 45531 H2         -29.3510    28.0870    32.8450 H      8873  TIP8723     0.2052
 45532 OH2        -19.9460   -13.9030   -46.2510 O.3    8874  TIP8724    -0.4105
 45533 H1         -19.3470   -13.1580   -46.2910 H      8874  TIP8724     0.2052
 45534 H2         -20.4960   -13.7290   -45.4880 H      8874  TIP8724     0.2052
 45535 OH2          8.6420    -1.2250   -54.5580 O.3    8875  TIP8725    -0.4105
 45536 H1           9.3950    -1.7370   -54.2630 H      8875  TIP8725     0.2052
 45537 H2           8.9740    -0.3300   -54.6300 H      8875  TIP8725     0.2052
 45538 OH2        -13.5980    10.7580    31.3690 O.3    8876  TIP8726    -0.4105
 45539 H1         -13.9020    10.9030    32.2650 H      8876  TIP8726     0.2052
 45540 H2         -13.2700     9.8590    31.3690 H      8876  TIP8726     0.2052
 45541 OH2        -30.6180   -13.2480    32.3860 O.3    8877  TIP8727    -0.4105
 45542 H1         -31.4740   -13.2320    32.8140 H      8877  TIP8727     0.2052
 45543 H2         -30.0590   -12.7130    32.9490 H      8877  TIP8727     0.2052
 45544 OH2          2.5160   -23.7060   -44.9400 O.3    8878  TIP8728    -0.4105
 45545 H1           2.5850   -23.2710   -45.7900 H      8878  TIP8728     0.2052
 45546 H2           3.3160   -24.2270   -44.8720 H      8878  TIP8728     0.2052
 45547 OH2         14.6630   -11.0100   -50.4730 O.3    8879  TIP8729    -0.4105
 45548 H1          13.7120   -11.0570   -50.5780 H      8879  TIP8729     0.2052
 45549 H2          14.9150   -11.8860   -50.1800 H      8879  TIP8729     0.2052
 45550 OH2        -20.0250   -18.0880   -28.8310 O.3    8880  TIP8730    -0.4105
 45551 H1         -19.6840   -18.5210   -28.0490 H      8880  TIP8730     0.2052
 45552 H2         -20.6270   -17.4240   -28.4940 H      8880  TIP8730     0.2052
 45553 OH2         11.5510   -18.8550    21.9690 O.3    8881  TIP8731    -0.4105
 45554 H1          11.2020   -17.9700    21.8630 H      8881  TIP8731     0.2052
 45555 H2          10.8290   -19.4300    21.7130 H      8881  TIP8731     0.2052
 45556 OH2          1.2570    19.6520    42.0030 O.3    8882  TIP8732    -0.4105
 45557 H1           2.1810    19.5390    42.2270 H      8882  TIP8732     0.2052
 45558 H2           1.0170    18.8410    41.5560 H      8882  TIP8732     0.2052
 45559 OH2         -1.8420    -0.6790   -35.7890 O.3    8883  TIP8733    -0.4105
 45560 H1          -2.7870    -0.6040   -35.9210 H      8883  TIP8733     0.2052
 45561 H2          -1.4920     0.1630   -36.0810 H      8883  TIP8733     0.2052
 45562 OH2        -14.1530    14.8410   -47.5320 O.3    8884  TIP8734    -0.4105
 45563 H1         -14.3860    15.7660   -47.4580 H      8884  TIP8734     0.2052
 45564 H2         -14.7240    14.5050   -48.2230 H      8884  TIP8734     0.2052
 45565 OH2          9.6780     6.2820    25.6550 O.3    8885  TIP8735    -0.4105
 45566 H1           9.2850     6.5660    24.8300 H      8885  TIP8735     0.2052
 45567 H2           9.0990     5.5870    25.9700 H      8885  TIP8735     0.2052
 45568 OH2         30.6390   -16.1840   -46.1230 O.3    8886  TIP8736    -0.4105
 45569 H1          29.7660   -16.5230   -45.9280 H      8886  TIP8736     0.2052
 45570 H2          30.8540   -15.6280   -45.3740 H      8886  TIP8736     0.2052
 45571 OH2        -18.7520   -15.4850   -29.0800 O.3    8887  TIP8737    -0.4105
 45572 H1         -18.7130   -16.2740   -28.5400 H      8887  TIP8737     0.2052
 45573 H2         -17.9740   -14.9850   -28.8320 H      8887  TIP8737     0.2052
 45574 OH2         -5.5780   -20.9280    50.7770 O.3    8888  TIP8738    -0.4105
 45575 H1          -6.4520   -20.7140    50.4510 H      8888  TIP8738     0.2052
 45576 H2          -5.2280   -20.0940    51.0900 H      8888  TIP8738     0.2052
 45577 OH2        -18.5710   -23.7660   -46.7110 O.3    8889  TIP8739    -0.4105
 45578 H1         -18.6600   -23.1190   -47.4110 H      8889  TIP8739     0.2052
 45579 H2         -18.5840   -23.2500   -45.9050 H      8889  TIP8739     0.2052
 45580 OH2        -15.4990    32.5220   -53.3510 O.3    8890  TIP8740    -0.4105
 45581 H1         -15.4250    31.9700   -52.5730 H      8890  TIP8740     0.2052
 45582 H2         -16.0380    32.0130   -53.9560 H      8890  TIP8740     0.2052
 45583 OH2          1.1600    29.6030   -22.0160 O.3    8891  TIP8741    -0.4105
 45584 H1           1.7690    30.2120   -22.4330 H      8891  TIP8741     0.2052
 45585 H2           0.6130    30.1550   -21.4570 H      8891  TIP8741     0.2052
 45586 OH2         26.7330    11.3210    44.3910 O.3    8892  TIP8742    -0.4105
 45587 H1          26.1970    12.1130    44.4180 H      8892  TIP8742     0.2052
 45588 H2          26.3640    10.8050    43.6740 H      8892  TIP8742     0.2052
 45589 OH2         -2.6700    32.9880    33.4780 O.3    8893  TIP8743    -0.4105
 45590 H1          -2.7460    33.9230    33.2890 H      8893  TIP8743     0.2052
 45591 H2          -1.7480    32.7860    33.3190 H      8893  TIP8743     0.2052
 45592 OH2        -15.8740     2.5620   -31.7140 O.3    8894  TIP8744    -0.4105
 45593 H1         -15.1230     1.9890   -31.5580 H      8894  TIP8744     0.2052
 45594 H2         -15.5540     3.2100   -32.3410 H      8894  TIP8744     0.2052
 45595 OH2        -22.2950    -2.1800   -28.0030 O.3    8895  TIP8745    -0.4105
 45596 H1         -22.7050    -3.0030   -27.7360 H      8895  TIP8745     0.2052
 45597 H2         -21.5690    -2.0640   -27.3900 H      8895  TIP8745     0.2052
 45598 OH2         -7.6220   -16.2480    32.5650 O.3    8896  TIP8746    -0.4105
 45599 H1          -6.6890   -16.0340    32.5590 H      8896  TIP8746     0.2052
 45600 H2          -7.7900   -16.6120    31.6960 H      8896  TIP8746     0.2052
 45601 OH2         29.9720    22.8840    36.0060 O.3    8897  TIP8747    -0.4105
 45602 H1          29.6810    23.7440    36.3090 H      8897  TIP8747     0.2052
 45603 H2          30.5060    22.5440    36.7240 H      8897  TIP8747     0.2052
 45604 OH2          5.5540   -14.5830   -25.7360 O.3    8898  TIP8748    -0.4105
 45605 H1           5.8870   -13.7110   -25.9500 H      8898  TIP8748     0.2052
 45606 H2           6.3380   -15.1020   -25.5610 H      8898  TIP8748     0.2052
 45607 OH2         28.8550   -12.8910    31.4040 O.3    8899  TIP8749    -0.4105
 45608 H1          29.5610   -12.6580    32.0060 H      8899  TIP8749     0.2052
 45609 H2          29.2350   -12.7800    30.5330 H      8899  TIP8749     0.2052
 45610 OH2         22.0880    14.2840   -53.7100 O.3    8900  TIP8750    -0.4105
 45611 H1          22.9160    14.7390   -53.8650 H      8900  TIP8750     0.2052
 45612 H2          21.9870    13.7070   -54.4680 H      8900  TIP8750     0.2052
 45613 OH2        -25.0860    11.0960    36.1450 O.3    8901  TIP8751    -0.4105
 45614 H1         -25.2780    10.3190    35.6210 H      8901  TIP8751     0.2052
 45615 H2         -25.6650    11.0220    36.9040 H      8901  TIP8751     0.2052
 45616 OH2          1.5540    29.5810    42.9380 O.3    8902  TIP8752    -0.4105
 45617 H1           1.6230    29.5090    41.9860 H      8902  TIP8752     0.2052
 45618 H2           1.2800    28.7100    43.2250 H      8902  TIP8752     0.2052
 45619 OH2          1.3300    26.0370   -31.5590 O.3    8903  TIP8753    -0.4105
 45620 H1           1.5940    26.5620   -30.8030 H      8903  TIP8753     0.2052
 45621 H2           0.4950    25.6480   -31.3010 H      8903  TIP8753     0.2052
 45622 OH2         -0.4640   -12.1020   -52.3130 O.3    8904  TIP8754    -0.4105
 45623 H1          -0.2470   -11.1740   -52.3970 H      8904  TIP8754     0.2052
 45624 H2          -0.2400   -12.4790   -53.1630 H      8904  TIP8754     0.2052
 45625 OH2        -10.2180   -27.3700   -34.0770 O.3    8905  TIP8755    -0.4105
 45626 H1          -9.4050   -27.8560   -33.9380 H      8905  TIP8755     0.2052
 45627 H2         -10.3070   -27.3190   -35.0290 H      8905  TIP8755     0.2052
 45628 OH2        -17.1910    32.2540   -38.2850 O.3    8906  TIP8756    -0.4105
 45629 H1         -16.7880    31.4230   -38.0330 H      8906  TIP8756     0.2052
 45630 H2         -18.0210    32.2720   -37.8080 H      8906  TIP8756     0.2052
 45631 OH2         26.0420    -6.7560   -16.2670 O.3    8907  TIP8757    -0.4105
 45632 H1          26.7530    -7.3280   -15.9790 H      8907  TIP8757     0.2052
 45633 H2          26.4330    -5.8830   -16.2960 H      8907  TIP8757     0.2052
 45634 OH2         30.2190    32.6480   -52.8830 O.3    8908  TIP8758    -0.4105
 45635 H1          30.6640    33.4380   -52.5750 H      8908  TIP8758     0.2052
 45636 H2          29.9780    32.1810   -52.0830 H      8908  TIP8758     0.2052
 45637 OH2          5.2550   -25.6290   -51.5330 O.3    8909  TIP8759    -0.4105
 45638 H1           5.6210   -26.0070   -50.7330 H      8909  TIP8759     0.2052
 45639 H2           4.3260   -25.8560   -51.5020 H      8909  TIP8759     0.2052
 45640 OH2         16.4640    12.2550    55.0680 O.3    8910  TIP8760    -0.4105
 45641 H1          17.2980    12.5840    54.7330 H      8910  TIP8760     0.2052
 45642 H2          15.8130    12.5700    54.4410 H      8910  TIP8760     0.2052
 45643 OH2         31.9070    31.0440    26.3120 O.3    8911  TIP8761    -0.4105
 45644 H1          32.4330    31.2890    27.0740 H      8911  TIP8761     0.2052
 45645 H2          31.4640    31.8530    26.0560 H      8911  TIP8761     0.2052
 45646 OH2          2.3920    20.7230   -32.3080 O.3    8912  TIP8762    -0.4105
 45647 H1           3.2690    20.9320   -32.6270 H      8912  TIP8762     0.2052
 45648 H2           2.4930    19.8820   -31.8610 H      8912  TIP8762     0.2052
 45649 OH2        -16.6530   -10.3100    32.8700 O.3    8913  TIP8763    -0.4105
 45650 H1         -16.2050    -9.8600    33.5860 H      8913  TIP8763     0.2052
 45651 H2         -17.5300   -10.4870    33.2100 H      8913  TIP8763     0.2052
 45652 OH2         23.1050    17.9900   -42.7440 O.3    8914  TIP8764    -0.4105
 45653 H1          22.4160    18.0680   -42.0850 H      8914  TIP8764     0.2052
 45654 H2          23.9170    17.9530   -42.2390 H      8914  TIP8764     0.2052
 45655 OH2         19.9370    32.8820   -33.9500 O.3    8915  TIP8765    -0.4105
 45656 H1          19.1620    33.2680   -33.5430 H      8915  TIP8765     0.2052
 45657 H2          19.7040    31.9630   -34.0880 H      8915  TIP8765     0.2052
 45658 OH2          0.0960   -17.7410   -25.2680 O.3    8916  TIP8766    -0.4105
 45659 H1          -0.1380   -16.9440   -25.7440 H      8916  TIP8766     0.2052
 45660 H2          -0.5650   -17.8120   -24.5800 H      8916  TIP8766     0.2052
 45661 OH2          6.7910    -0.8850   -14.2430 O.3    8917  TIP8767    -0.4105
 45662 H1           6.6980     0.0540   -14.4050 H      8917  TIP8767     0.2052
 45663 H2           7.4180    -0.9430   -13.5220 H      8917  TIP8767     0.2052
 45664 OH2        -25.9460     1.6170    31.6930 O.3    8918  TIP8768    -0.4105
 45665 H1         -25.0830     1.2180    31.8070 H      8918  TIP8768     0.2052
 45666 H2         -25.7610     2.4970    31.3640 H      8918  TIP8768     0.2052
 45667 OH2          5.1310     6.4640   -47.8220 O.3    8919  TIP8769    -0.4105
 45668 H1           5.4250     7.0250   -48.5390 H      8919  TIP8769     0.2052
 45669 H2           5.6740     5.6790   -47.8930 H      8919  TIP8769     0.2052
 45670 OH2         19.7630    19.2070   -52.1520 O.3    8920  TIP8770    -0.4105
 45671 H1          19.1690    19.9410   -52.3060 H      8920  TIP8770     0.2052
 45672 H2          19.1970    18.5000   -51.8410 H      8920  TIP8770     0.2052
 45673 OH2        -10.8260    -6.3850   -22.7440 O.3    8921  TIP8771    -0.4105
 45674 H1         -10.5290    -7.1890   -23.1690 H      8921  TIP8771     0.2052
 45675 H2         -11.7210    -6.5770   -22.4650 H      8921  TIP8771     0.2052
 45676 OH2         25.3580   -17.5410   -31.4350 O.3    8922  TIP8772    -0.4105
 45677 H1          24.9260   -17.7030   -32.2740 H      8922  TIP8772     0.2052
 45678 H2          25.8040   -16.7020   -31.5530 H      8922  TIP8772     0.2052
 45679 OH2          4.2460   -12.5390   -37.8950 O.3    8923  TIP8773    -0.4105
 45680 H1           3.3740   -12.1450   -37.8630 H      8923  TIP8773     0.2052
 45681 H2           4.8450   -11.7940   -37.9270 H      8923  TIP8773     0.2052
 45682 OH2        -12.4560   -11.9570   -28.3190 O.3    8924  TIP8774    -0.4105
 45683 H1         -13.1960   -11.6970   -28.8680 H      8924  TIP8774     0.2052
 45684 H2         -12.2100   -12.8230   -28.6430 H      8924  TIP8774     0.2052
 45685 OH2        -17.6510   -12.8280    31.6450 O.3    8925  TIP8775    -0.4105
 45686 H1         -18.4050   -12.3930    31.2470 H      8925  TIP8775     0.2052
 45687 H2         -17.5810   -12.4370    32.5160 H      8925  TIP8775     0.2052
 45688 OH2        -15.9280    26.2210   -18.9390 O.3    8926  TIP8776    -0.4105
 45689 H1         -15.7440    25.8450   -19.8000 H      8926  TIP8776     0.2052
 45690 H2         -15.1500    26.7400   -18.7340 H      8926  TIP8776     0.2052
 45691 OH2         -1.9730     7.7450   -49.0480 O.3    8927  TIP8777    -0.4105
 45692 H1          -2.5750     7.3230   -49.6610 H      8927  TIP8777     0.2052
 45693 H2          -1.9290     8.6550   -49.3430 H      8927  TIP8777     0.2052
 45694 OH2         28.5770    30.2850    40.8290 O.3    8928  TIP8778    -0.4105
 45695 H1          28.9150    29.5270    41.3060 H      8928  TIP8778     0.2052
 45696 H2          27.9870    30.7150    41.4480 H      8928  TIP8778     0.2052
 45697 OH2        -16.4750    21.3200   -23.5930 O.3    8929  TIP8779    -0.4105
 45698 H1         -15.9950    21.7710   -24.2880 H      8929  TIP8779     0.2052
 45699 H2         -15.9620    21.4830   -22.8020 H      8929  TIP8779     0.2052
 45700 OH2         27.9740    -6.3510   -38.2940 O.3    8930  TIP8780    -0.4105
 45701 H1          28.5340    -7.1190   -38.1810 H      8930  TIP8780     0.2052
 45702 H2          28.5830    -5.6320   -38.4600 H      8930  TIP8780     0.2052
 45703 OH2        -29.8400    -8.1580    54.8550 O.3    8931  TIP8781    -0.4105
 45704 H1         -30.7100    -8.1370    55.2530 H      8931  TIP8781     0.2052
 45705 H2         -29.6020    -7.2370    54.7500 H      8931  TIP8781     0.2052
 45706 OH2         -4.6350   -31.9150   -45.3000 O.3    8932  TIP8782    -0.4105
 45707 H1          -4.8900   -32.7000   -44.8140 H      8932  TIP8782     0.2052
 45708 H2          -4.2610   -32.2490   -46.1150 H      8932  TIP8782     0.2052
 45709 OH2          7.0630    15.0010    35.2130 O.3    8933  TIP8783    -0.4105
 45710 H1           7.0890    15.1040    36.1640 H      8933  TIP8783     0.2052
 45711 H2           7.6950    15.6420    34.8850 H      8933  TIP8783     0.2052
 45712 OH2         15.8710     0.6570   -31.8020 O.3    8934  TIP8784    -0.4105
 45713 H1          15.0240     0.4140   -31.4290 H      8934  TIP8784     0.2052
 45714 H2          15.8590     0.2890   -32.6850 H      8934  TIP8784     0.2052
 45715 OH2         12.2450    18.4420    46.4870 O.3    8935  TIP8785    -0.4105
 45716 H1          11.4910    17.8530    46.5110 H      8935  TIP8785     0.2052
 45717 H2          12.6030    18.4090    47.3750 H      8935  TIP8785     0.2052
 45718 OH2         -8.9850   -22.9000    42.6920 O.3    8936  TIP8786    -0.4105
 45719 H1          -9.4260   -23.1370    43.5080 H      8936  TIP8786     0.2052
 45720 H2          -8.4810   -23.6790    42.4570 H      8936  TIP8786     0.2052
 45721 OH2         24.0000    -1.1260   -21.6790 O.3    8937  TIP8787    -0.4105
 45722 H1          23.8210    -0.2380   -21.3710 H      8937  TIP8787     0.2052
 45723 H2          24.6790    -1.0170   -22.3450 H      8937  TIP8787     0.2052
 45724 OH2        -31.2290     9.4510    25.9540 O.3    8938  TIP8788    -0.4105
 45725 H1         -31.4050     9.5420    25.0180 H      8938  TIP8788     0.2052
 45726 H2         -31.7230    10.1620    26.3610 H      8938  TIP8788     0.2052
 45727 OH2         -8.2500    16.4500    33.9760 O.3    8939  TIP8789    -0.4105
 45728 H1          -8.8470    15.8840    34.4650 H      8939  TIP8789     0.2052
 45729 H2          -8.3900    16.2110    33.0600 H      8939  TIP8789     0.2052
 45730 OH2         -3.7740    28.3150    45.1470 O.3    8940  TIP8790    -0.4105
 45731 H1          -4.7150    28.2190    45.2900 H      8940  TIP8790     0.2052
 45732 H2          -3.6750    29.1930    44.7800 H      8940  TIP8790     0.2052
 45733 OH2        -27.9670   -12.2240    45.6420 O.3    8941  TIP8791    -0.4105
 45734 H1         -28.2780   -12.5950    46.4680 H      8941  TIP8791     0.2052
 45735 H2         -27.3810   -11.5140    45.9030 H      8941  TIP8791     0.2052
 45736 OH2        -16.2650     6.6130    51.9470 O.3    8942  TIP8792    -0.4105
 45737 H1         -16.9300     6.5260    52.6300 H      8942  TIP8792     0.2052
 45738 H2         -15.4780     6.8930    52.4140 H      8942  TIP8792     0.2052
 45739 OH2         -9.3170   -12.1010    52.1660 O.3    8943  TIP8793    -0.4105
 45740 H1          -8.9650   -12.7290    51.5350 H      8943  TIP8793     0.2052
 45741 H2          -8.6970   -12.1190    52.8950 H      8943  TIP8793     0.2052
 45742 OH2         23.5830     0.5000    40.0980 O.3    8944  TIP8794    -0.4105
 45743 H1          23.0020    -0.1270    40.5290 H      8944  TIP8794     0.2052
 45744 H2          24.4600     0.2570    40.3950 H      8944  TIP8794     0.2052
 45745 OH2         17.6970    -5.6910    54.1110 O.3    8945  TIP8795    -0.4105
 45746 H1          16.8830    -5.1970    54.2020 H      8945  TIP8795     0.2052
 45747 H2          17.4790    -6.4050    53.5110 H      8945  TIP8795     0.2052
 45748 OH2         19.6690   -19.7760    43.5890 O.3    8946  TIP8796    -0.4105
 45749 H1          19.0210   -20.3490    43.9970 H      8946  TIP8796     0.2052
 45750 H2          19.7440   -19.0330    44.1880 H      8946  TIP8796     0.2052
 45751 OH2         32.1740   -26.7550    31.1130 O.3    8947  TIP8797    -0.4105
 45752 H1          31.7250   -27.2660    31.7870 H      8947  TIP8797     0.2052
 45753 H2          32.4200   -27.3990    30.4490 H      8947  TIP8797     0.2052
 45754 OH2         27.4260   -21.5950   -19.7940 O.3    8948  TIP8798    -0.4105
 45755 H1          28.1400   -21.4640   -20.4180 H      8948  TIP8798     0.2052
 45756 H2          27.5670   -20.9260   -19.1240 H      8948  TIP8798     0.2052
 45757 OH2         27.0780   -14.3540    48.9100 O.3    8949  TIP8799    -0.4105
 45758 H1          27.2380   -13.5490    48.4180 H      8949  TIP8799     0.2052
 45759 H2          27.1590   -14.0940    49.8280 H      8949  TIP8799     0.2052
 45760 OH2         27.8530    19.0910    30.2450 O.3    8950  TIP8800    -0.4105
 45761 H1          28.6080    18.7010    30.6850 H      8950  TIP8800     0.2052
 45762 H2          27.2170    18.3790    30.1810 H      8950  TIP8800     0.2052
 45763 OH2         29.4390     0.9710   -31.6170 O.3    8951  TIP8801    -0.4105
 45764 H1          30.3740     0.8000   -31.5100 H      8951  TIP8801     0.2052
 45765 H2          29.3990     1.7340   -32.1930 H      8951  TIP8801     0.2052
 45766 OH2         29.7000     9.2790    43.9510 O.3    8952  TIP8802    -0.4105
 45767 H1          30.6550     9.2180    43.9800 H      8952  TIP8802     0.2052
 45768 H2          29.4860     9.2520    43.0180 H      8952  TIP8802     0.2052
 45769 OH2         25.3440   -15.9270   -40.7090 O.3    8953  TIP8803    -0.4105
 45770 H1          26.0720   -16.5450   -40.7740 H      8953  TIP8803     0.2052
 45771 H2          24.5680   -16.4470   -40.9160 H      8953  TIP8803     0.2052
 45772 OH2        -10.7930     6.8010   -35.8020 O.3    8954  TIP8804    -0.4105
 45773 H1         -10.0450     6.9280   -35.2180 H      8954  TIP8804     0.2052
 45774 H2         -11.4710     7.3790   -35.4510 H      8954  TIP8804     0.2052
 45775 OH2        -25.5300    25.6350   -53.6380 O.3    8955  TIP8805    -0.4105
 45776 H1         -26.2130    25.4700   -54.2880 H      8955  TIP8805     0.2052
 45777 H2         -25.3340    24.7730   -53.2720 H      8955  TIP8805     0.2052
 45778 OH2        -25.8260     9.7620   -35.5840 O.3    8956  TIP8806    -0.4105
 45779 H1         -26.3340     8.9510   -35.5910 H      8956  TIP8806     0.2052
 45780 H2         -26.4770    10.4530   -35.4600 H      8956  TIP8806     0.2052
 45781 OH2         25.8790    23.7030    20.5100 O.3    8957  TIP8807    -0.4105
 45782 H1          26.5700    24.3630    20.5560 H      8957  TIP8807     0.2052
 45783 H2          26.0640    23.2170    19.7060 H      8957  TIP8807     0.2052
 45784 OH2         -5.3410    16.7880    33.5050 O.3    8958  TIP8808    -0.4105
 45785 H1          -5.3650    17.1320    32.6120 H      8958  TIP8808     0.2052
 45786 H2          -6.2580    16.7620    33.7770 H      8958  TIP8808     0.2052
 45787 OH2        -11.2220     1.8540    49.6540 O.3    8959  TIP8809    -0.4105
 45788 H1         -11.0050     1.6110    48.7540 H      8959  TIP8809     0.2052
 45789 H2         -11.9880     2.4210    49.5710 H      8959  TIP8809     0.2052
 45790 OH2         19.3570     6.8230   -43.1360 O.3    8960  TIP8810    -0.4105
 45791 H1          19.7880     6.6930   -42.2910 H      8960  TIP8810     0.2052
 45792 H2          19.6160     7.7040   -43.4040 H      8960  TIP8810     0.2052
 45793 OH2         26.1840    -5.1700    28.9070 O.3    8961  TIP8811    -0.4105
 45794 H1          26.2160    -5.7280    29.6840 H      8961  TIP8811     0.2052
 45795 H2          27.0840    -5.1620    28.5800 H      8961  TIP8811     0.2052
 45796 OH2         17.8340    -5.5690   -45.8200 O.3    8962  TIP8812    -0.4105
 45797 H1          18.3470    -6.1120   -45.2220 H      8962  TIP8812     0.2052
 45798 H2          17.8140    -6.0660   -46.6380 H      8962  TIP8812     0.2052
 45799 OH2        -25.8810   -15.7170    52.4980 O.3    8963  TIP8813    -0.4105
 45800 H1         -25.4970   -16.3440    53.1110 H      8963  TIP8813     0.2052
 45801 H2         -25.8840   -14.8860    52.9750 H      8963  TIP8813     0.2052
 45802 OH2         18.1530   -20.6130   -49.5500 O.3    8964  TIP8814    -0.4105
 45803 H1          17.5750   -21.0610   -50.1670 H      8964  TIP8814     0.2052
 45804 H2          18.8930   -20.3210   -50.0820 H      8964  TIP8814     0.2052
 45805 OH2         -1.3040    -1.6750   -17.5510 O.3    8965  TIP8815    -0.4105
 45806 H1          -1.0890    -2.5670   -17.2780 H      8965  TIP8815     0.2052
 45807 H2          -0.5540    -1.1510   -17.2680 H      8965  TIP8815     0.2052
 45808 OH2        -22.8060   -10.3780   -36.9150 O.3    8966  TIP8816    -0.4105
 45809 H1         -22.1800   -10.0100   -37.5380 H      8966  TIP8816     0.2052
 45810 H2         -23.2720   -11.0500   -37.4110 H      8966  TIP8816     0.2052
 45811 OH2          4.4690     0.0420   -43.1210 O.3    8967  TIP8817    -0.4105
 45812 H1           4.2400     0.2160   -42.2080 H      8967  TIP8817     0.2052
 45813 H2           3.6370     0.0910   -43.5910 H      8967  TIP8817     0.2052
 45814 OH2        -18.8370    12.1010   -35.4200 O.3    8968  TIP8818    -0.4105
 45815 H1         -18.6240    12.2750   -34.5030 H      8968  TIP8818     0.2052
 45816 H2         -18.1570    12.5570   -35.9150 H      8968  TIP8818     0.2052
 45817 OH2        -31.7760    26.7360    29.6350 O.3    8969  TIP8819    -0.4105
 45818 H1         -31.5260    27.1370    30.4680 H      8969  TIP8819     0.2052
 45819 H2         -31.1230    27.0530    29.0110 H      8969  TIP8819     0.2052
 45820 OH2          4.7750   -17.8490    46.6710 O.3    8970  TIP8820    -0.4105
 45821 H1           5.2510   -17.8400    45.8410 H      8970  TIP8820     0.2052
 45822 H2           5.4330   -18.0900    47.3230 H      8970  TIP8820     0.2052
 45823 OH2        -16.2660    -0.3790    33.5320 O.3    8971  TIP8821    -0.4105
 45824 H1         -16.4110    -0.1190    34.4420 H      8971  TIP8821     0.2052
 45825 H2         -17.0750    -0.1390    33.0810 H      8971  TIP8821     0.2052
 45826 OH2        -26.5490   -23.1580    55.4250 O.3    8972  TIP8822    -0.4105
 45827 H1         -27.1310   -23.1820    56.1850 H      8972  TIP8822     0.2052
 45828 H2         -25.9560   -22.4270    55.6010 H      8972  TIP8822     0.2052
 45829 OH2         -2.8500    -7.2670    43.2830 O.3    8973  TIP8823    -0.4105
 45830 H1          -2.2010    -7.2080    43.9840 H      8973  TIP8823     0.2052
 45831 H2          -2.4510    -7.8490    42.6350 H      8973  TIP8823     0.2052
 45832 OH2        -21.5480   -22.8980   -40.9710 O.3    8974  TIP8824    -0.4105
 45833 H1         -21.2120   -23.5700   -40.3770 H      8974  TIP8824     0.2052
 45834 H2         -20.8310   -22.2690   -41.0510 H      8974  TIP8824     0.2052
 45835 OH2          7.4380   -14.9470    54.5530 O.3    8975  TIP8825    -0.4105
 45836 H1           7.2310   -14.7950    55.4750 H      8975  TIP8825     0.2052
 45837 H2           6.8120   -15.6150    54.2740 H      8975  TIP8825     0.2052
 45838 OH2         23.6640    -5.2390   -42.9400 O.3    8976  TIP8826    -0.4105
 45839 H1          24.2300    -5.9470   -42.6340 H      8976  TIP8826     0.2052
 45840 H2          23.1320    -5.6380   -43.6280 H      8976  TIP8826     0.2052
 45841 OH2         15.6980    -1.6010   -24.4920 O.3    8977  TIP8827    -0.4105
 45842 H1          16.0970    -0.9720   -23.8910 H      8977  TIP8827     0.2052
 45843 H2          15.5950    -1.1170   -25.3120 H      8977  TIP8827     0.2052
 45844 OH2        -28.1030   -29.0030    39.6890 O.3    8978  TIP8828    -0.4105
 45845 H1         -28.6340   -29.2520    38.9320 H      8978  TIP8828     0.2052
 45846 H2         -28.3440   -28.0930    39.8620 H      8978  TIP8828     0.2052
 45847 OH2          2.5090   -14.9020    44.8560 O.3    8979  TIP8829    -0.4105
 45848 H1           2.5490   -15.8560    44.7890 H      8979  TIP8829     0.2052
 45849 H2           1.7930   -14.6500    44.2740 H      8979  TIP8829     0.2052
 45850 OH2        -10.0550   -25.0000   -48.8580 O.3    8980  TIP8830    -0.4105
 45851 H1          -9.7440   -25.5510   -49.5770 H      8980  TIP8830     0.2052
 45852 H2          -9.5310   -24.2010   -48.9240 H      8980  TIP8830     0.2052
 45853 OH2        -22.9650    23.3290   -38.7150 O.3    8981  TIP8831    -0.4105
 45854 H1         -22.2520    23.9410   -38.5340 H      8981  TIP8831     0.2052
 45855 H2         -23.6530    23.5720   -38.0950 H      8981  TIP8831     0.2052
 45856 OH2        -31.4480    11.4240   -35.9830 O.3    8982  TIP8832    -0.4105
 45857 H1         -32.3650    11.3010   -35.7370 H      8982  TIP8832     0.2052
 45858 H2         -31.4710    12.0960   -36.6650 H      8982  TIP8832     0.2052
 45859 OH2         -3.4580    -8.2880   -34.5310 O.3    8983  TIP8833    -0.4105
 45860 H1          -3.7320    -7.5720   -35.1050 H      8983  TIP8833     0.2052
 45861 H2          -3.9980    -8.1850   -33.7470 H      8983  TIP8833     0.2052
 45862 OH2         32.3130     4.6970   -35.2640 O.3    8984  TIP8834    -0.4105
 45863 H1          32.1160     4.3920   -36.1500 H      8984  TIP8834     0.2052
 45864 H2          31.5070     4.5410   -34.7720 H      8984  TIP8834     0.2052
 45865 OH2         -1.7690     7.3950    34.0820 O.3    8985  TIP8835    -0.4105
 45866 H1          -1.8140     8.1800    34.6300 H      8985  TIP8835     0.2052
 45867 H2          -2.5070     6.8590    34.3720 H      8985  TIP8835     0.2052
 45868 OH2        -14.4340    24.1090    46.9900 O.3    8986  TIP8836    -0.4105
 45869 H1         -14.2060    24.9360    47.4150 H      8986  TIP8836     0.2052
 45870 H2         -13.6180    23.6070    46.9880 H      8986  TIP8836     0.2052
 45871 OH2        -21.7520    32.8450   -50.8190 O.3    8987  TIP8837    -0.4105
 45872 H1         -21.7640    32.9340   -51.7720 H      8987  TIP8837     0.2052
 45873 H2         -21.3420    33.6520   -50.5080 H      8987  TIP8837     0.2052
 45874 OH2         -3.7020    30.8090   -46.1370 O.3    8988  TIP8838    -0.4105
 45875 H1          -4.2260    31.1230   -45.4000 H      8988  TIP8838     0.2052
 45876 H2          -3.4240    31.6050   -46.5900 H      8988  TIP8838     0.2052
 45877 OH2         -9.9800    27.5100   -35.4520 O.3    8989  TIP8839    -0.4105
 45878 H1         -10.6120    26.8930   -35.8210 H      8989  TIP8839     0.2052
 45879 H2          -9.4210    27.7510   -36.1900 H      8989  TIP8839     0.2052
 45880 OH2         30.7380    16.5460   -30.8980 O.3    8990  TIP8840    -0.4105
 45881 H1          29.9730    16.6030   -30.3250 H      8990  TIP8840     0.2052
 45882 H2          31.4680    16.8430   -30.3540 H      8990  TIP8840     0.2052
 45883 OH2         19.3620   -28.6430   -52.7680 O.3    8991  TIP8841    -0.4105
 45884 H1          20.2440   -28.2810   -52.8530 H      8991  TIP8841     0.2052
 45885 H2          19.5010   -29.5780   -52.6180 H      8991  TIP8841     0.2052
 45886 OH2        -17.3250    25.3800   -55.2280 O.3    8992  TIP8842    -0.4105
 45887 H1         -16.6180    24.7750   -55.4530 H      8992  TIP8842     0.2052
 45888 H2         -16.8890    26.0980   -54.7700 H      8992  TIP8842     0.2052
 45889 OH2         31.0110     7.0210   -32.0820 O.3    8993  TIP8843    -0.4105
 45890 H1          31.8360     7.4140   -31.7960 H      8993  TIP8843     0.2052
 45891 H2          31.0260     7.0990   -33.0350 H      8993  TIP8843     0.2052
 45892 OH2         15.8020    -4.6500    26.1880 O.3    8994  TIP8844    -0.4105
 45893 H1          16.7030    -4.3940    25.9900 H      8994  TIP8844     0.2052
 45894 H2          15.4210    -4.8640    25.3360 H      8994  TIP8844     0.2052
 45895 OH2         18.8720    25.6920   -52.6120 O.3    8995  TIP8845    -0.4105
 45896 H1          18.3340    25.1580   -52.0270 H      8995  TIP8845     0.2052
 45897 H2          19.7480    25.6620   -52.2250 H      8995  TIP8845     0.2052
 45898 OH2        -29.1130   -22.0010    33.7290 O.3    8996  TIP8846    -0.4105
 45899 H1         -29.7190   -21.4010    33.2940 H      8996  TIP8846     0.2052
 45900 H2         -28.2740   -21.8510    33.2950 H      8996  TIP8846     0.2052
 45901 OH2         -2.4890    23.8660   -36.0740 O.3    8997  TIP8847    -0.4105
 45902 H1          -3.0930    24.6070   -36.1170 H      8997  TIP8847     0.2052
 45903 H2          -1.6550    24.2520   -35.8060 H      8997  TIP8847     0.2052
 45904 OH2          2.1000    -0.9920   -48.0300 O.3    8998  TIP8848    -0.4105
 45905 H1           2.0280    -1.3690   -47.1530 H      8998  TIP8848     0.2052
 45906 H2           2.7850    -0.3290   -47.9500 H      8998  TIP8848     0.2052
 45907 OH2        -17.8650   -12.6830   -22.3450 O.3    8999  TIP8849    -0.4105
 45908 H1         -17.1360   -12.4990   -22.9370 H      8999  TIP8849     0.2052
 45909 H2         -18.0470   -13.6150   -22.4700 H      8999  TIP8849     0.2052
 45910 OH2          1.3110    23.3240    45.0920 O.3    9000  TIP8850    -0.4105
 45911 H1           1.8230    22.9830    45.8260 H      9000  TIP8850     0.2052
 45912 H2           1.9330    23.3670    44.3660 H      9000  TIP8850     0.2052
 45913 OH2        -31.2450   -32.8310   -36.1780 O.3    9001  TIP8851    -0.4105
 45914 H1         -30.6820   -32.4440   -36.8490 H      9001  TIP8851     0.2052
 45915 H2         -31.4760   -32.0980   -35.6080 H      9001  TIP8851     0.2052
 45916 OH2        -24.2850     1.5570    50.5190 O.3    9002  TIP8852    -0.4105
 45917 H1         -24.8130     0.7590    50.5010 H      9002  TIP8852     0.2052
 45918 H2         -23.6750     1.4240    51.2450 H      9002  TIP8852     0.2052
 45919 OH2         -4.9520    25.8360    23.6950 O.3    9003  TIP8853    -0.4105
 45920 H1          -5.7350    25.8340    24.2460 H      9003  TIP8853     0.2052
 45921 H2          -5.1830    26.3910    22.9510 H      9003  TIP8853     0.2052
 45922 OH2         20.9370     5.5850    49.0400 O.3    9004  TIP8854    -0.4105
 45923 H1          20.9210     5.4270    49.9840 H      9004  TIP8854     0.2052
 45924 H2          21.6040     6.2610    48.9200 H      9004  TIP8854     0.2052
 45925 OH2        -26.7100   -23.1350   -26.2380 O.3    9005  TIP8855    -0.4105
 45926 H1         -26.9570   -23.0800   -25.3150 H      9005  TIP8855     0.2052
 45927 H2         -27.1050   -22.3610   -26.6390 H      9005  TIP8855     0.2052
 45928 OH2         10.2450    -6.3020    53.6750 O.3    9006  TIP8856    -0.4105
 45929 H1          10.5520    -5.4330    53.4170 H      9006  TIP8856     0.2052
 45930 H2           9.5370    -6.4990    53.0620 H      9006  TIP8856     0.2052
 45931 OH2         26.7010    15.0100   -33.1720 O.3    9007  TIP8857    -0.4105
 45932 H1          25.7730    14.9690   -32.9430 H      9007  TIP8857     0.2052
 45933 H2          27.1580    14.7970   -32.3580 H      9007  TIP8857     0.2052
 45934 OH2         -1.2740     9.2320    40.9670 O.3    9008  TIP8858    -0.4105
 45935 H1          -0.9000     9.3250    40.0910 H      9008  TIP8858     0.2052
 45936 H2          -0.9120     9.9670    41.4620 H      9008  TIP8858     0.2052
 45937 OH2          5.3950   -24.3110    50.5310 O.3    9009  TIP8859    -0.4105
 45938 H1           5.1910   -23.6030    51.1420 H      9009  TIP8859     0.2052
 45939 H2           5.8040   -24.9850    51.0730 H      9009  TIP8859     0.2052
 45940 OH2        -13.3260   -12.3290    24.2130 O.3    9010  TIP8860    -0.4105
 45941 H1         -12.4090   -12.5790    24.0960 H      9010  TIP8860     0.2052
 45942 H2         -13.6740   -12.9730    24.8290 H      9010  TIP8860     0.2052
 45943 OH2         24.5630    13.5310    41.8680 O.3    9011  TIP8861    -0.4105
 45944 H1          25.1160    13.2970    41.1220 H      9011  TIP8861     0.2052
 45945 H2          23.9890    12.7740    41.9870 H      9011  TIP8861     0.2052
 45946 OH2         -2.3920   -32.4750   -31.2210 O.3    9012  TIP8862    -0.4105
 45947 H1          -3.2540   -32.2340   -30.8830 H      9012  TIP8862     0.2052
 45948 H2          -1.8600   -31.6870   -31.1070 H      9012  TIP8862     0.2052
 45949 OH2         23.4390    21.7810    28.0090 O.3    9013  TIP8863    -0.4105
 45950 H1          24.1630    22.4060    28.0440 H      9013  TIP8863     0.2052
 45951 H2          23.4960    21.3970    27.1340 H      9013  TIP8863     0.2052
 45952 OH2          4.6510    24.3040    34.6880 O.3    9014  TIP8864    -0.4105
 45953 H1           3.7170    24.2810    34.4800 H      9014  TIP8864     0.2052
 45954 H2           4.7640    25.1080    35.1950 H      9014  TIP8864     0.2052
 45955 OH2         28.6820    20.2170    44.6450 O.3    9015  TIP8865    -0.4105
 45956 H1          28.8510    19.2750    44.6310 H      9015  TIP8865     0.2052
 45957 H2          27.7760    20.3020    44.3490 H      9015  TIP8865     0.2052
 45958 OH2        -13.2660    19.0590    54.4720 O.3    9016  TIP8866    -0.4105
 45959 H1         -13.7870    19.0630    55.2750 H      9016  TIP8866     0.2052
 45960 H2         -12.3680    19.2060    54.7680 H      9016  TIP8866     0.2052
 45961 OH2         16.8360    25.7310   -39.2350 O.3    9017  TIP8867    -0.4105
 45962 H1          17.7310    26.0610   -39.3140 H      9017  TIP8867     0.2052
 45963 H2          16.8320    24.9240   -39.7500 H      9017  TIP8867     0.2052
 45964 OH2         30.8150    11.6530    41.9260 O.3    9018  TIP8868    -0.4105
 45965 H1          30.9470    11.9720    42.8180 H      9018  TIP8868     0.2052
 45966 H2          31.4430    10.9360    41.8320 H      9018  TIP8868     0.2052
 45967 OH2         14.8770   -28.6750   -35.3230 O.3    9019  TIP8869    -0.4105
 45968 H1          15.1530   -29.4860   -34.8980 H      9019  TIP8869     0.2052
 45969 H2          14.3060   -28.2500   -34.6830 H      9019  TIP8869     0.2052
 45970 OH2         -6.0740   -25.9570   -36.1950 O.3    9020  TIP8870    -0.4105
 45971 H1          -6.9850   -25.8330   -36.4630 H      9020  TIP8870     0.2052
 45972 H2          -5.5600   -25.6160   -36.9260 H      9020  TIP8870     0.2052
 45973 OH2         24.7360    18.5290   -31.7410 O.3    9021  TIP8871    -0.4105
 45974 H1          25.1560    18.2780   -32.5640 H      9021  TIP8871     0.2052
 45975 H2          23.8060    18.3550   -31.8840 H      9021  TIP8871     0.2052
 45976 OH2        -19.3420    -5.9650    25.8620 O.3    9022  TIP8872    -0.4105
 45977 H1         -20.2580    -5.6870    25.8740 H      9022  TIP8872     0.2052
 45978 H2         -19.2070    -6.3850    26.7120 H      9022  TIP8872     0.2052
 45979 OH2         27.4390   -16.9730   -20.6680 O.3    9023  TIP8873    -0.4105
 45980 H1          28.1730   -16.3590   -20.6710 H      9023  TIP8873     0.2052
 45981 H2          27.2850   -17.1590   -19.7410 H      9023  TIP8873     0.2052
 45982 OH2          9.7430    19.6510    44.0710 O.3    9024  TIP8874    -0.4105
 45983 H1          10.4930    20.0640    44.4980 H      9024  TIP8874     0.2052
 45984 H2          10.1290    19.0670    43.4180 H      9024  TIP8874     0.2052
 45985 OH2         -6.3980     6.6780    50.7320 O.3    9025  TIP8875    -0.4105
 45986 H1          -5.7400     6.9510    51.3720 H      9025  TIP8875     0.2052
 45987 H2          -7.2300     6.9710    51.1040 H      9025  TIP8875     0.2052
 45988 OH2         -5.8920     6.4570   -45.6920 O.3    9026  TIP8876    -0.4105
 45989 H1          -5.2420     5.8130   -45.9720 H      9026  TIP8876     0.2052
 45990 H2          -5.3750     7.1870   -45.3500 H      9026  TIP8876     0.2052
 45991 OH2         -8.2490    10.7300   -43.7590 O.3    9027  TIP8877    -0.4105
 45992 H1          -8.6030    11.5740   -43.4790 H      9027  TIP8877     0.2052
 45993 H2          -7.5500    10.5430   -43.1330 H      9027  TIP8877     0.2052
 45994 OH2         10.7050   -26.8180   -51.1680 O.3    9028  TIP8878    -0.4105
 45995 H1          11.0970   -26.0120   -51.5040 H      9028  TIP8878     0.2052
 45996 H2           9.7660   -26.6350   -51.1400 H      9028  TIP8878     0.2052
 45997 OH2        -23.0430   -29.6530    21.1250 O.3    9029  TIP8879    -0.4105
 45998 H1         -23.4410   -29.8560    20.2790 H      9029  TIP8879     0.2052
 45999 H2         -22.4050   -28.9660    20.9320 H      9029  TIP8879     0.2052
 46000 OH2         22.0260    -2.0380   -54.1140 O.3    9030  TIP8880    -0.4105
 46001 H1          21.1270    -2.2560   -53.8680 H      9030  TIP8880     0.2052
 46002 H2          22.5680    -2.6280   -53.5890 H      9030  TIP8880     0.2052
 46003 OH2         -5.9260     3.5250    44.5370 O.3    9031  TIP8881    -0.4105
 46004 H1          -5.8840     4.3580    45.0070 H      9031  TIP8881     0.2052
 46005 H2          -5.1700     3.0320    44.8550 H      9031  TIP8881     0.2052
 46006 OH2         -1.5620     7.7530   -39.2000 O.3    9032  TIP8882    -0.4105
 46007 H1          -1.0620     6.9900   -39.4890 H      9032  TIP8882     0.2052
 46008 H2          -0.9100     8.4480   -39.1110 H      9032  TIP8882     0.2052
 46009 OH2         27.1280    -3.1030    38.3450 O.3    9033  TIP8883    -0.4105
 46010 H1          27.8400    -3.7270    38.2020 H      9033  TIP8883     0.2052
 46011 H2          27.0470    -2.6370    37.5120 H      9033  TIP8883     0.2052
 46012 OH2         13.4070   -15.9680   -33.2780 O.3    9034  TIP8884    -0.4105
 46013 H1          13.2020   -15.9590   -34.2120 H      9034  TIP8884     0.2052
 46014 H2          14.3640   -15.9880   -33.2420 H      9034  TIP8884     0.2052
 46015 OH2          2.5110    -9.6680    31.5040 O.3    9035  TIP8885    -0.4105
 46016 H1           2.1540    -9.9870    32.3330 H      9035  TIP8885     0.2052
 46017 H2           3.1810    -9.0330    31.7600 H      9035  TIP8885     0.2052
 46018 OH2        -28.5570   -20.3420    35.9960 O.3    9036  TIP8886    -0.4105
 46019 H1         -27.9570   -19.6110    35.8450 H      9036  TIP8886     0.2052
 46020 H2         -28.7330   -20.6910    35.1220 H      9036  TIP8886     0.2052
 46021 OH2         -7.6650   -19.0060    23.7510 O.3    9037  TIP8887    -0.4105
 46022 H1          -7.5890   -18.4030    23.0110 H      9037  TIP8887     0.2052
 46023 H2          -6.9100   -19.5890    23.6630 H      9037  TIP8887     0.2052
 46024 OH2        -14.3650    26.7580   -41.8650 O.3    9038  TIP8888    -0.4105
 46025 H1         -14.5540    27.6410   -42.1840 H      9038  TIP8888     0.2052
 46026 H2         -13.9060    26.3340   -42.5900 H      9038  TIP8888     0.2052
 46027 OH2        -25.1820     6.5680    38.7050 O.3    9039  TIP8889    -0.4105
 46028 H1         -25.3340     6.1180    39.5360 H      9039  TIP8889     0.2052
 46029 H2         -24.4630     7.1720    38.8880 H      9039  TIP8889     0.2052
 46030 OH2         14.4780     9.8530   -42.5860 O.3    9040  TIP8890    -0.4105
 46031 H1          15.0190    10.4990   -43.0400 H      9040  TIP8890     0.2052
 46032 H2          13.8140     9.6020   -43.2280 H      9040  TIP8890     0.2052
 46033 OH2        -15.8210   -13.9810    45.0280 O.3    9041  TIP8891    -0.4105
 46034 H1         -16.6740   -14.1350    44.6230 H      9041  TIP8891     0.2052
 46035 H2         -15.3240   -14.7800    44.8520 H      9041  TIP8891     0.2052
 46036 OH2         -8.0250     2.5660   -37.2120 O.3    9042  TIP8892    -0.4105
 46037 H1          -8.2410     2.0570   -37.9940 H      9042  TIP8892     0.2052
 46038 H2          -7.4160     3.2360   -37.5230 H      9042  TIP8892     0.2052
 46039 OH2          1.4510    13.4660   -48.0930 O.3    9043  TIP8893    -0.4105
 46040 H1           2.0420    13.7590   -47.4000 H      9043  TIP8893     0.2052
 46041 H2           0.8560    12.8550   -47.6580 H      9043  TIP8893     0.2052
 46042 OH2         32.6570   -11.5620   -50.0150 O.3    9044  TIP8894    -0.4105
 46043 H1          32.4790   -10.9250   -49.3220 H      9044  TIP8894     0.2052
 46044 H2          33.3360   -12.1290   -49.6500 H      9044  TIP8894     0.2052
 46045 OH2         15.2020    31.7160    54.2560 O.3    9045  TIP8895    -0.4105
 46046 H1          14.6100    32.4670    54.2230 H      9045  TIP8895     0.2052
 46047 H2          14.8010    31.0700    53.6740 H      9045  TIP8895     0.2052
 46048 OH2        -17.0470    27.8380   -33.2600 O.3    9046  TIP8896    -0.4105
 46049 H1         -16.3580    28.2880   -32.7710 H      9046  TIP8896     0.2052
 46050 H2         -17.2620    28.4350   -33.9770 H      9046  TIP8896     0.2052
 46051 OH2         11.5530    -2.6710   -35.9860 O.3    9047  TIP8897    -0.4105
 46052 H1          12.0140    -3.4720   -36.2340 H      9047  TIP8897     0.2052
 46053 H2          12.0670    -2.3130   -35.2620 H      9047  TIP8897     0.2052
 46054 OH2        -11.5010   -10.8830    42.6510 O.3    9048  TIP8898    -0.4105
 46055 H1         -12.3860   -11.1480    42.9020 H      9048  TIP8898     0.2052
 46056 H2         -11.2090   -10.3170    43.3660 H      9048  TIP8898     0.2052
 46057 OH2         21.6260    -2.9680    52.9790 O.3    9049  TIP8899    -0.4105
 46058 H1          22.1890    -2.2600    53.2930 H      9049  TIP8899     0.2052
 46059 H2          20.8380    -2.9050    53.5180 H      9049  TIP8899     0.2052
 46060 OH2        -12.6410    -7.9880    46.6210 O.3    9050  TIP8900    -0.4105
 46061 H1         -12.4780    -7.0550    46.4840 H      9050  TIP8900     0.2052
 46062 H2         -12.8130    -8.0650    47.5600 H      9050  TIP8900     0.2052
 46063 OH2         31.1300   -29.4680    30.5290 O.3    9051  TIP8901    -0.4105
 46064 H1          30.4660   -29.3610    29.8480 H      9051  TIP8901     0.2052
 46065 H2          30.7750   -29.0010    31.2860 H      9051  TIP8901     0.2052
 46066 OH2          7.2680    24.6930    41.5760 O.3    9052  TIP8902    -0.4105
 46067 H1           7.1760    23.7420    41.5190 H      9052  TIP8902     0.2052
 46068 H2           7.8260    24.9260    40.8350 H      9052  TIP8902     0.2052
 46069 OH2        -25.8470   -13.5680    20.4980 O.3    9053  TIP8903    -0.4105
 46070 H1         -25.2620   -13.1500    21.1300 H      9053  TIP8903     0.2052
 46071 H2         -25.2680   -14.0960    19.9480 H      9053  TIP8903     0.2052
 46072 OH2         -9.8110     5.5110    47.6780 O.3    9054  TIP8904    -0.4105
 46073 H1         -10.6900     5.1950    47.8870 H      9054  TIP8904     0.2052
 46074 H2          -9.5260     4.9620    46.9480 H      9054  TIP8904     0.2052
 46075 OH2         20.2010    30.7840   -44.3020 O.3    9055  TIP8905    -0.4105
 46076 H1          20.3950    29.8590   -44.1490 H      9055  TIP8905     0.2052
 46077 H2          21.0010    31.2430   -44.0460 H      9055  TIP8905     0.2052
 46078 OH2         10.1110    31.3830   -28.5690 O.3    9056  TIP8906    -0.4105
 46079 H1           9.6820    32.2110   -28.3500 H      9056  TIP8906     0.2052
 46080 H2          10.9320    31.6410   -28.9870 H      9056  TIP8906     0.2052
 46081 OH2          5.9740   -25.2930    28.1900 O.3    9057  TIP8907    -0.4105
 46082 H1           6.8000   -25.7680    28.2780 H      9057  TIP8907     0.2052
 46083 H2           5.4900   -25.7750    27.5190 H      9057  TIP8907     0.2052
 46084 OH2         -2.6800   -29.6000    36.9100 O.3    9058  TIP8908    -0.4105
 46085 H1          -1.9830   -28.9980    37.1710 H      9058  TIP8908     0.2052
 46086 H2          -3.1820   -29.1170    36.2550 H      9058  TIP8908     0.2052
 46087 OH2         25.9430   -20.3590   -30.3130 O.3    9059  TIP8909    -0.4105
 46088 H1          26.8620   -20.5970   -30.1950 H      9059  TIP8909     0.2052
 46089 H2          25.9640   -19.4370   -30.5710 H      9059  TIP8909     0.2052
 46090 OH2         32.9090    18.5990    17.8320 O.3    9060  TIP8910    -0.4105
 46091 H1          33.6880    18.7700    18.3610 H      9060  TIP8910     0.2052
 46092 H2          32.3180    18.1280    18.4210 H      9060  TIP8910     0.2052
 46093 OH2          1.4160   -15.6370    27.5200 O.3    9061  TIP8911    -0.4105
 46094 H1           1.7590   -15.0410    26.8540 H      9061  TIP8911     0.2052
 46095 H2           2.1940   -16.0410    27.9040 H      9061  TIP8911     0.2052
 46096 OH2          2.1880   -30.2960    40.2970 O.3    9062  TIP8912    -0.4105
 46097 H1           2.1050   -30.7740    41.1220 H      9062  TIP8912     0.2052
 46098 H2           2.4420   -30.9630    39.6590 H      9062  TIP8912     0.2052
 46099 OH2        -15.2970     5.7440    20.7270 O.3    9063  TIP8913    -0.4105
 46100 H1         -16.1540     6.0910    20.4770 H      9063  TIP8913     0.2052
 46101 H2         -14.6900     6.4670    20.5720 H      9063  TIP8913     0.2052
 46102 OH2        -19.1510   -18.3400   -23.7050 O.3    9064  TIP8914    -0.4105
 46103 H1         -18.5290   -18.3130   -22.9780 H      9064  TIP8914     0.2052
 46104 H2         -19.7400   -17.6030   -23.5430 H      9064  TIP8914     0.2052
 46105 OH2         24.4360   -20.4150    35.9520 O.3    9065  TIP8915    -0.4105
 46106 H1          24.1760   -21.1870    35.4500 H      9065  TIP8915     0.2052
 46107 H2          23.7740   -19.7570    35.7410 H      9065  TIP8915     0.2052
 46108 OH2         -4.2770    -9.1600    29.9550 O.3    9066  TIP8916    -0.4105
 46109 H1          -4.7110    -8.3310    30.1580 H      9066  TIP8916     0.2052
 46110 H2          -4.8790    -9.8310    30.2780 H      9066  TIP8916     0.2052
 46111 OH2          3.1230    13.8780   -27.0110 O.3    9067  TIP8917    -0.4105
 46112 H1           2.7580    13.1550   -26.5020 H      9067  TIP8917     0.2052
 46113 H2           2.3620    14.2970   -27.4130 H      9067  TIP8917     0.2052
 46114 OH2         22.4490   -21.8600    26.2290 O.3    9068  TIP8918    -0.4105
 46115 H1          22.6660   -22.6850    25.7940 H      9068  TIP8918     0.2052
 46116 H2          21.9750   -21.3570    25.5670 H      9068  TIP8918     0.2052
 46117 OH2        -32.8110   -21.1570   -55.0950 O.3    9069  TIP8919    -0.4105
 46118 H1         -33.1560   -20.7210   -55.8750 H      9069  TIP8919     0.2052
 46119 H2         -33.0150   -22.0830   -55.2280 H      9069  TIP8919     0.2052
 46120 OH2         31.1320    25.7790   -25.2530 O.3    9070  TIP8920    -0.4105
 46121 H1          30.4870    25.5780   -25.9310 H      9070  TIP8920     0.2052
 46122 H2          30.6110    25.9620   -24.4720 H      9070  TIP8920     0.2052
 46123 OH2          9.7630    24.1410   -38.6770 O.3    9071  TIP8921    -0.4105
 46124 H1           8.8430    23.9770   -38.8850 H      9071  TIP8921     0.2052
 46125 H2           9.8630    23.8350   -37.7750 H      9071  TIP8921     0.2052
 46126 OH2        -16.5890    27.4480    49.3140 O.3    9072  TIP8922    -0.4105
 46127 H1         -16.7930    27.1200    48.4380 H      9072  TIP8922     0.2052
 46128 H2         -15.7920    26.9820    49.5650 H      9072  TIP8922     0.2052
 46129 OH2         20.2240     3.3380    23.1250 O.3    9073  TIP8923    -0.4105
 46130 H1          19.3510     2.9590    23.0210 H      9073  TIP8923     0.2052
 46131 H2          20.1900     3.7890    23.9690 H      9073  TIP8923     0.2052
 46132 OH2          9.9090     9.2330    35.3730 O.3    9074  TIP8924    -0.4105
 46133 H1           9.5420     8.3510    35.4180 H      9074  TIP8924     0.2052
 46134 H2          10.3380     9.2710    34.5180 H      9074  TIP8924     0.2052
 46135 OH2         -5.0080   -22.6410   -47.7980 O.3    9075  TIP8925    -0.4105
 46136 H1          -4.2170   -22.2220   -47.4590 H      9075  TIP8925     0.2052
 46137 H2          -5.6370   -21.9250   -47.8900 H      9075  TIP8925     0.2052
 46138 OH2        -14.8750    13.7390    23.8650 O.3    9076  TIP8926    -0.4105
 46139 H1         -15.6530    14.1040    23.4440 H      9076  TIP8926     0.2052
 46140 H2         -14.7990    14.2200    24.6890 H      9076  TIP8926     0.2052
 46141 OH2         -7.1050    24.0070   -45.5250 O.3    9077  TIP8927    -0.4105
 46142 H1          -7.8770    23.4900   -45.2960 H      9077  TIP8927     0.2052
 46143 H2          -7.4100    24.9140   -45.5070 H      9077  TIP8927     0.2052
 46144 OH2         30.5040     2.8610    37.8800 O.3    9078  TIP8928    -0.4105
 46145 H1          31.2500     2.9360    38.4750 H      9078  TIP8928     0.2052
 46146 H2          30.2230     1.9500    37.9610 H      9078  TIP8928     0.2052
 46147 OH2         31.3920    -6.3300   -36.8690 O.3    9079  TIP8929    -0.4105
 46148 H1          30.8200    -5.7850   -37.4100 H      9079  TIP8929     0.2052
 46149 H2          32.2650    -5.9570   -36.9920 H      9079  TIP8929     0.2052
 46150 OH2         24.1140   -29.2000   -26.2840 O.3    9080  TIP8930    -0.4105
 46151 H1          24.2220   -28.2600   -26.4280 H      9080  TIP8930     0.2052
 46152 H2          24.9720   -29.4960   -25.9780 H      9080  TIP8930     0.2052
 46153 OH2         20.9000   -25.3290   -33.9750 O.3    9081  TIP8931    -0.4105
 46154 H1          20.5440   -24.4530   -33.8230 H      9081  TIP8931     0.2052
 46155 H2          21.8380   -25.2400   -33.8060 H      9081  TIP8931     0.2052
 46156 OH2         -4.8680   -15.2750   -48.5750 O.3    9082  TIP8932    -0.4105
 46157 H1          -5.4940   -14.6680   -48.9710 H      9082  TIP8932     0.2052
 46158 H2          -5.2610   -15.5120   -47.7360 H      9082  TIP8932     0.2052
 46159 OH2          0.0130   -12.4870    18.0850 O.3    9083  TIP8933    -0.4105
 46160 H1          -0.8810   -12.1560    18.1700 H      9083  TIP8933     0.2052
 46161 H2           0.5680   -11.7260    18.2520 H      9083  TIP8933     0.2052
 46162 OH2        -10.2150    15.1720    38.6850 O.3    9084  TIP8934    -0.4105
 46163 H1         -11.1170    14.9170    38.4910 H      9084  TIP8934     0.2052
 46164 H2          -9.7480    14.3440    38.7870 H      9084  TIP8934     0.2052
 46165 OH2        -29.0090   -19.0450   -48.0080 O.3    9085  TIP8935    -0.4105
 46166 H1         -29.6700   -18.8530   -47.3420 H      9085  TIP8935     0.2052
 46167 H2         -28.8720   -19.9900   -47.9450 H      9085  TIP8935     0.2052
 46168 OH2        -28.7130    31.2050    26.0280 O.3    9086  TIP8936    -0.4105
 46169 H1         -29.3660    31.5000    26.6630 H      9086  TIP8936     0.2052
 46170 H2         -29.2090    30.6730    25.4050 H      9086  TIP8936     0.2052
 46171 OH2         25.3320    30.9730   -44.4300 O.3    9087  TIP8937    -0.4105
 46172 H1          26.1980    30.7890   -44.7930 H      9087  TIP8937     0.2052
 46173 H2          25.0000    30.1190   -44.1530 H      9087  TIP8937     0.2052
 46174 OH2         30.0980    18.0520   -49.2860 O.3    9088  TIP8938    -0.4105
 46175 H1          30.2290    18.8940   -49.7220 H      9088  TIP8938     0.2052
 46176 H2          30.2990    17.4000   -49.9580 H      9088  TIP8938     0.2052
 46177 OH2        -26.0760   -10.0910   -14.6960 O.3    9089  TIP8939    -0.4105
 46178 H1         -26.1890    -9.8610   -15.6190 H      9089  TIP8939     0.2052
 46179 H2         -25.3670    -9.5240   -14.3930 H      9089  TIP8939     0.2052
 46180 OH2         -1.7450    21.2710   -50.1810 O.3    9090  TIP8940    -0.4105
 46181 H1          -1.3480    21.4150   -51.0400 H      9090  TIP8940     0.2052
 46182 H2          -2.4360    21.9310   -50.1230 H      9090  TIP8940     0.2052
 46183 OH2         -3.0740   -28.2600    44.7000 O.3    9091  TIP8941    -0.4105
 46184 H1          -2.7210   -27.9640    43.8600 H      9091  TIP8941     0.2052
 46185 H2          -3.6050   -29.0260    44.4810 H      9091  TIP8941     0.2052
 46186 OH2          4.8720     6.6950   -31.5980 O.3    9092  TIP8942    -0.4105
 46187 H1           5.2790     7.5560   -31.5020 H      9092  TIP8942     0.2052
 46188 H2           5.6030     6.0780   -31.5690 H      9092  TIP8942     0.2052
 46189 OH2         -2.9100    15.1920    38.9830 O.3    9093  TIP8943    -0.4105
 46190 H1          -2.6770    16.0860    38.7320 H      9093  TIP8943     0.2052
 46191 H2          -2.5770    14.6480    38.2690 H      9093  TIP8943     0.2052
 46192 OH2        -26.5770     6.0430   -35.5170 O.3    9094  TIP8944    -0.4105
 46193 H1         -25.7340     6.4930   -35.4650 H      9094  TIP8944     0.2052
 46194 H2         -26.5850     5.6480   -36.3890 H      9094  TIP8944     0.2052
 46195 OH2        -15.8190    12.0000   -23.5100 O.3    9095  TIP8945    -0.4105
 46196 H1         -15.1710    11.9180   -24.2100 H      9095  TIP8945     0.2052
 46197 H2         -15.6680    11.2370   -22.9530 H      9095  TIP8945     0.2052
 46198 OH2        -23.1680    -4.2060    30.5420 O.3    9096  TIP8946    -0.4105
 46199 H1         -23.4110    -3.8700    29.6790 H      9096  TIP8946     0.2052
 46200 H2         -23.8180    -3.8310    31.1370 H      9096  TIP8946     0.2052
 46201 OH2         -7.8130   -30.7580   -42.3180 O.3    9097  TIP8947    -0.4105
 46202 H1          -7.8380   -29.9520   -41.8020 H      9097  TIP8947     0.2052
 46203 H2          -7.6270   -30.4670   -43.2100 H      9097  TIP8947     0.2052
 46204 OH2        -21.1940    24.4080   -34.3010 O.3    9098  TIP8948    -0.4105
 46205 H1         -21.1980    24.0060   -33.4320 H      9098  TIP8948     0.2052
 46206 H2         -21.1530    23.6680   -34.9070 H      9098  TIP8948     0.2052
 46207 OH2        -18.4160     7.2570   -37.8730 O.3    9099  TIP8949    -0.4105
 46208 H1         -19.0860     7.2060   -38.5540 H      9099  TIP8949     0.2052
 46209 H2         -18.4770     8.1530   -37.5420 H      9099  TIP8949     0.2052
 46210 OH2        -11.8260   -27.5600   -40.2430 O.3    9100  TIP8950    -0.4105
 46211 H1         -11.6820   -27.8080   -41.1560 H      9100  TIP8950     0.2052
 46212 H2         -11.2210   -26.8330   -40.0930 H      9100  TIP8950     0.2052
 46213 OH2         11.4430     5.8310    35.5070 O.3    9101  TIP8951    -0.4105
 46214 H1          11.5150     6.4060    36.2690 H      9101  TIP8951     0.2052
 46215 H2          10.5090     5.8270    35.2980 H      9101  TIP8951     0.2052
 46216 OH2          7.3270   -17.9560    45.5530 O.3    9102  TIP8952    -0.4105
 46217 H1           7.4860   -18.6800    46.1590 H      9102  TIP8952     0.2052
 46218 H2           8.1850   -17.7710    45.1700 H      9102  TIP8952     0.2052
 46219 OH2         29.6910    -2.7940   -55.4270 O.3    9103  TIP8953    -0.4105
 46220 H1          30.2780    -3.3250   -55.9660 H      9103  TIP8953     0.2052
 46221 H2          28.9370    -3.3610   -55.2650 H      9103  TIP8953     0.2052
 46222 OH2        -11.5680    17.4130   -52.2460 O.3    9104  TIP8954    -0.4105
 46223 H1         -11.4560    17.1230   -51.3400 H      9104  TIP8954     0.2052
 46224 H2         -11.4420    16.6210   -52.7690 H      9104  TIP8954     0.2052
 46225 OH2         29.7670    10.1730   -33.6310 O.3    9105  TIP8955    -0.4105
 46226 H1          29.1000     9.5390   -33.3680 H      9105  TIP8955     0.2052
 46227 H2          30.3060    10.2930   -32.8490 H      9105  TIP8955     0.2052
 46228 OH2         -2.1000   -15.3170    43.2720 O.3    9106  TIP8956    -0.4105
 46229 H1          -2.2060   -16.2680    43.2680 H      9106  TIP8956     0.2052
 46230 H2          -2.8180   -14.9980    43.8190 H      9106  TIP8956     0.2052
 46231 OH2         13.6460   -10.8420    34.9800 O.3    9107  TIP8957    -0.4105
 46232 H1          14.5090   -11.2520    34.9360 H      9107  TIP8957     0.2052
 46233 H2          13.2030   -11.1270    34.1810 H      9107  TIP8957     0.2052
 46234 OH2         32.5160   -23.1270    37.4220 O.3    9108  TIP8958    -0.4105
 46235 H1          32.4450   -24.0800    37.4860 H      9108  TIP8958     0.2052
 46236 H2          33.3820   -22.9760    37.0420 H      9108  TIP8958     0.2052
 46237 OH2          6.1180    11.7440    42.4430 O.3    9109  TIP8959    -0.4105
 46238 H1           5.5710    11.3290    43.1100 H      9109  TIP8959     0.2052
 46239 H2           6.9200    11.2230    42.4320 H      9109  TIP8959     0.2052
 46240 OH2        -27.4160    22.4270    30.1520 O.3    9110  TIP8960    -0.4105
 46241 H1         -27.5450    21.7200    30.7840 H      9110  TIP8960     0.2052
 46242 H2         -28.1180    22.3100    29.5130 H      9110  TIP8960     0.2052
 46243 OH2         -1.5800   -22.0680   -42.3550 O.3    9111  TIP8961    -0.4105
 46244 H1          -1.0120   -22.8140   -42.5450 H      9111  TIP8961     0.2052
 46245 H2          -1.2670   -21.7350   -41.5140 H      9111  TIP8961     0.2052
 46246 OH2         -7.8190    12.7230    49.3920 O.3    9112  TIP8962    -0.4105
 46247 H1          -8.5460    13.3400    49.3110 H      9112  TIP8962     0.2052
 46248 H2          -8.2330    11.8600    49.3750 H      9112  TIP8962     0.2052
 46249 OH2         31.4240    -6.9370    42.8500 O.3    9113  TIP8963    -0.4105
 46250 H1          31.3200    -6.5820    41.9670 H      9113  TIP8963     0.2052
 46251 H2          32.3700    -7.0090    42.9710 H      9113  TIP8963     0.2052
 46252 OH2         -6.1370    25.3150    34.1310 O.3    9114  TIP8964    -0.4105
 46253 H1          -5.7100    26.1280    33.8610 H      9114  TIP8964     0.2052
 46254 H2          -6.0750    25.3170    35.0860 H      9114  TIP8964     0.2052
 46255 OH2        -29.3010     0.6190   -55.0190 O.3    9115  TIP8965    -0.4105
 46256 H1         -29.5010     1.5450   -54.8830 H      9115  TIP8965     0.2052
 46257 H2         -29.2860     0.5140   -55.9700 H      9115  TIP8965     0.2052
 46258 OH2        -32.7700   -11.6960    55.2390 O.3    9116  TIP8966    -0.4105
 46259 H1         -32.1050   -12.3800    55.1610 H      9116  TIP8966     0.2052
 46260 H2         -33.4470   -11.9460    54.6090 H      9116  TIP8966     0.2052
 46261 OH2          8.3100    22.9140    48.8210 O.3    9117  TIP8967    -0.4105
 46262 H1           8.4190    22.5580    49.7030 H      9117  TIP8967     0.2052
 46263 H2           7.6720    22.3340    48.4050 H      9117  TIP8967     0.2052
 46264 OH2         21.2370    27.5010   -28.8360 O.3    9118  TIP8968    -0.4105
 46265 H1          22.0800    27.2670   -29.2230 H      9118  TIP8968     0.2052
 46266 H2          21.4480    27.7610   -27.9390 H      9118  TIP8968     0.2052
 46267 OH2        -12.6330   -27.6990    29.0730 O.3    9119  TIP8969    -0.4105
 46268 H1         -12.1060   -27.9420    29.8340 H      9119  TIP8969     0.2052
 46269 H2         -12.0000   -27.6060    28.3620 H      9119  TIP8969     0.2052
 46270 OH2         14.9900   -13.3760    53.5220 O.3    9120  TIP8970    -0.4105
 46271 H1          14.6130   -13.3170    54.4000 H      9120  TIP8970     0.2052
 46272 H2          15.0200   -12.4710    53.2120 H      9120  TIP8970     0.2052
 46273 OH2        -14.3410   -12.1940   -50.5730 O.3    9121  TIP8971    -0.4105
 46274 H1         -14.9640   -11.4670   -50.5700 H      9121  TIP8971     0.2052
 46275 H2         -13.9800   -12.2050   -49.6870 H      9121  TIP8971     0.2052
 46276 OH2         30.7710    32.8570    41.8480 O.3    9122  TIP8972    -0.4105
 46277 H1          31.2180    32.0420    41.6190 H      9122  TIP8972     0.2052
 46278 H2          30.3980    32.6910    42.7140 H      9122  TIP8972     0.2052
 46279 OH2        -26.0350    22.0840    17.0640 O.3    9123  TIP8973    -0.4105
 46280 H1         -25.4090    21.4200    16.7740 H      9123  TIP8973     0.2052
 46281 H2         -26.8000    21.9530    16.5020 H      9123  TIP8973     0.2052
 46282 OH2         -6.7070    -5.8660   -36.0380 O.3    9124  TIP8974    -0.4105
 46283 H1          -5.8110    -6.1780   -35.9100 H      9124  TIP8974     0.2052
 46284 H2          -6.6200    -5.1310   -36.6460 H      9124  TIP8974     0.2052
 46285 OH2         12.5200    -5.2490   -36.5580 O.3    9125  TIP8975    -0.4105
 46286 H1          12.8700    -6.0490   -36.9490 H      9125  TIP8975     0.2052
 46287 H2          12.9240    -5.2090   -35.6910 H      9125  TIP8975     0.2052
 46288 OH2         31.6150     7.3880   -35.2650 O.3    9126  TIP8976    -0.4105
 46289 H1          31.9260     6.4920   -35.1380 H      9126  TIP8976     0.2052
 46290 H2          32.4130     7.9080   -35.3600 H      9126  TIP8976     0.2052
 46291 OH2         16.7480   -18.1180   -33.8350 O.3    9127  TIP8977    -0.4105
 46292 H1          16.9490   -17.3310   -34.3420 H      9127  TIP8977     0.2052
 46293 H2          15.8900   -18.3970   -34.1560 H      9127  TIP8977     0.2052
 46294 OH2          6.7330     1.0030   -11.7330 O.3    9128  TIP8978    -0.4105
 46295 H1           7.3840     1.0330   -11.0310 H      9128  TIP8978     0.2052
 46296 H2           6.5070     1.9190   -11.8900 H      9128  TIP8978     0.2052
 46297 OH2         26.3240    22.3170    18.1440 O.3    9129  TIP8979    -0.4105
 46298 H1          26.7820    21.6470    17.6370 H      9129  TIP8979     0.2052
 46299 H2          26.3620    23.1010    17.5950 H      9129  TIP8979     0.2052
 46300 OH2        -24.9590    -6.3650   -29.9340 O.3    9130  TIP8980    -0.4105
 46301 H1         -24.2860    -6.1540   -30.5810 H      9130  TIP8980     0.2052
 46302 H2         -25.7540    -5.9510   -30.2700 H      9130  TIP8980     0.2052
 46303 OH2        -13.6480   -11.5090    32.6360 O.3    9131  TIP8981    -0.4105
 46304 H1         -13.8090   -12.1180    31.9150 H      9131  TIP8981     0.2052
 46305 H2         -14.5030   -11.1160    32.8130 H      9131  TIP8981     0.2052
 46306 OH2        -19.1160    -7.5030    31.5520 O.3    9132  TIP8982    -0.4105
 46307 H1         -19.7380    -6.8400    31.2520 H      9132  TIP8982     0.2052
 46308 H2         -18.2660    -7.0640    31.5270 H      9132  TIP8982     0.2052
 46309 OH2         -4.5660   -14.9270   -52.9560 O.3    9133  TIP8983    -0.4105
 46310 H1          -5.1610   -15.4900   -53.4510 H      9133  TIP8983     0.2052
 46311 H2          -3.6950   -15.2750   -53.1430 H      9133  TIP8983     0.2052
 46312 OH2         14.2850   -21.2420   -53.1330 O.3    9134  TIP8984    -0.4105
 46313 H1          13.3970   -20.8850   -53.1110 H      9134  TIP8984     0.2052
 46314 H2          14.1760   -22.1380   -53.4510 H      9134  TIP8984     0.2052
 46315 OH2        -31.8140    29.7850    42.8090 O.3    9135  TIP8985    -0.4105
 46316 H1         -31.8840    28.9570    42.3340 H      9135  TIP8985     0.2052
 46317 H2         -32.5940    30.2760    42.5510 H      9135  TIP8985     0.2052
 46318 OH2         10.8020    -3.7930    52.6560 O.3    9136  TIP8986    -0.4105
 46319 H1          10.4520    -4.0250    51.7950 H      9136  TIP8986     0.2052
 46320 H2          10.1950    -3.1340    52.9920 H      9136  TIP8986     0.2052
 46321 OH2         26.7900    -9.3030   -41.8610 O.3    9137  TIP8987    -0.4105
 46322 H1          26.0190    -9.4770   -41.3200 H      9137  TIP8987     0.2052
 46323 H2          27.5210    -9.6620   -41.3580 H      9137  TIP8987     0.2052
 46324 OH2          4.8700     5.0150   -51.7800 O.3    9138  TIP8988    -0.4105
 46325 H1           4.9040     4.6430   -52.6610 H      9138  TIP8988     0.2052
 46326 H2           5.7800     5.2320   -51.5760 H      9138  TIP8988     0.2052
 46327 OH2         11.7170    18.9100    38.6810 O.3    9139  TIP8989    -0.4105
 46328 H1          11.8860    19.3790    37.8640 H      9139  TIP8989     0.2052
 46329 H2          12.5370    18.9770    39.1700 H      9139  TIP8989     0.2052
 46330 OH2        -12.5480    28.9210    34.7770 O.3    9140  TIP8990    -0.4105
 46331 H1         -13.2130    28.6220    34.1560 H      9140  TIP8990     0.2052
 46332 H2         -12.2420    28.1210    35.2030 H      9140  TIP8990     0.2052
 46333 OH2         16.0720    28.3520    54.1450 O.3    9141  TIP8991    -0.4105
 46334 H1          15.4070    28.8760    54.5920 H      9141  TIP8991     0.2052
 46335 H2          15.8720    27.4490    54.3930 H      9141  TIP8991     0.2052
 46336 OH2         23.6030   -29.4280   -46.8920 O.3    9142  TIP8992    -0.4105
 46337 H1          24.3620   -30.0050   -46.8110 H      9142  TIP8992     0.2052
 46338 H2          23.3600   -29.4800   -47.8170 H      9142  TIP8992     0.2052
 46339 OH2         23.4680    15.6770   -20.6040 O.3    9143  TIP8993    -0.4105
 46340 H1          23.1220    16.0240   -19.7820 H      9143  TIP8993     0.2052
 46341 H2          22.9540    16.1120   -21.2840 H      9143  TIP8993     0.2052
 46342 OH2          2.4270   -23.4780   -52.1030 O.3    9144  TIP8994    -0.4105
 46343 H1           2.5900   -22.6980   -51.5730 H      9144  TIP8994     0.2052
 46344 H2           2.2780   -24.1760   -51.4650 H      9144  TIP8994     0.2052
 46345 OH2          8.0850     9.4280   -24.9190 O.3    9145  TIP8995    -0.4105
 46346 H1           8.5670     9.2460   -24.1130 H      9145  TIP8995     0.2052
 46347 H2           7.1710     9.4920   -24.6430 H      9145  TIP8995     0.2052
 46348 OH2         13.2560   -18.9150    33.1210 O.3    9146  TIP8996    -0.4105
 46349 H1          14.0540   -19.3430    33.4330 H      9146  TIP8996     0.2052
 46350 H2          13.2200   -18.0910    33.6070 H      9146  TIP8996     0.2052
 46351 OH2        -13.9470    23.9620   -53.5510 O.3    9147  TIP8997    -0.4105
 46352 H1         -14.5740    23.2980   -53.8380 H      9147  TIP8997     0.2052
 46353 H2         -13.1050    23.6600   -53.8920 H      9147  TIP8997     0.2052
 46354 OH2          6.4810   -19.6130    34.6880 O.3    9148  TIP8998    -0.4105
 46355 H1           5.9680   -20.4120    34.8110 H      9148  TIP8998     0.2052
 46356 H2           7.1910   -19.6830    35.3260 H      9148  TIP8998     0.2052
 46357 OH2        -28.4690   -19.9060   -41.4610 O.3    9149  TIP8999    -0.4105
 46358 H1         -28.1520   -19.7730   -42.3540 H      9149  TIP8999     0.2052
 46359 H2         -29.4160   -19.7770   -41.5200 H      9149  TIP8999     0.2052
 46360 OH2        -26.6570    24.7210    31.0200 O.3    9150  TIP9000    -0.4105
 46361 H1         -26.8620    23.8220    30.7620 H      9150  TIP9000     0.2052
 46362 H2         -26.8400    25.2430    30.2390 H      9150  TIP9000     0.2052
 46363 OH2         -1.8820     6.6970   -22.5870 O.3    9151  TIP9001    -0.4105
 46364 H1          -1.1340     6.1060   -22.6750 H      9151  TIP9001     0.2052
 46365 H2          -2.4040     6.3200   -21.8790 H      9151  TIP9001     0.2052
 46366 OH2          5.7440   -10.5010   -39.3860 O.3    9152  TIP9002    -0.4105
 46367 H1           5.6860   -11.3450   -39.8340 H      9152  TIP9002     0.2052
 46368 H2           6.6770   -10.3880   -39.2070 H      9152  TIP9002     0.2052
 46369 OH2        -12.4380    -4.7880   -47.2980 O.3    9153  TIP9003    -0.4105
 46370 H1         -12.8260    -4.0210   -47.7200 H      9153  TIP9003     0.2052
 46371 H2         -12.8520    -4.8210   -46.4350 H      9153  TIP9003     0.2052
 46372 OH2         -3.6200    -1.1850    30.7420 O.3    9154  TIP9004    -0.4105
 46373 H1          -3.8070    -1.8920    31.3600 H      9154  TIP9004     0.2052
 46374 H2          -4.2270    -1.3320    30.0170 H      9154  TIP9004     0.2052
 46375 OH2         30.4450    30.8490   -44.0750 O.3    9155  TIP9005    -0.4105
 46376 H1          30.9350    30.0460   -43.8950 H      9155  TIP9005     0.2052
 46377 H2          30.8260    31.1860   -44.8860 H      9155  TIP9005     0.2052
 46378 OH2         -9.0340   -16.9580   -33.5870 O.3    9156  TIP9006    -0.4105
 46379 H1          -8.2940   -17.3380   -33.1130 H      9156  TIP9006     0.2052
 46380 H2          -9.7550   -16.9710   -32.9580 H      9156  TIP9006     0.2052
 46381 OH2         12.7490   -30.5620   -45.4060 O.3    9157  TIP9007    -0.4105
 46382 H1          12.4890   -31.4830   -45.3810 H      9157  TIP9007     0.2052
 46383 H2          13.6820   -30.5810   -45.6200 H      9157  TIP9007     0.2052
 46384 OH2        -21.6970    -5.4150    51.1650 O.3    9158  TIP9008    -0.4105
 46385 H1         -21.2280    -5.8840    51.8560 H      9158  TIP9008     0.2052
 46386 H2         -21.0220    -5.2020    50.5200 H      9158  TIP9008     0.2052
 46387 OH2          1.1100   -32.2930    21.7890 O.3    9159  TIP9009    -0.4105
 46388 H1           0.9070   -31.5840    22.4000 H      9159  TIP9009     0.2052
 46389 H2           1.2440   -31.8550    20.9490 H      9159  TIP9009     0.2052
 46390 OH2         24.3370   -25.1840    29.2190 O.3    9160  TIP9010    -0.4105
 46391 H1          24.7930   -24.7060    28.5270 H      9160  TIP9010     0.2052
 46392 H2          23.4400   -25.2720    28.8990 H      9160  TIP9010     0.2052
 46393 OH2          5.3450   -28.3300    53.4720 O.3    9161  TIP9011    -0.4105
 46394 H1           5.0910   -29.2420    53.6170 H      9161  TIP9011     0.2052
 46395 H2           6.2780   -28.3710    53.2640 H      9161  TIP9011     0.2052
 46396 OH2        -18.4230    10.3300   -50.6700 O.3    9162  TIP9012    -0.4105
 46397 H1         -18.9630    10.0960   -49.9150 H      9162  TIP9012     0.2052
 46398 H2         -18.9730    10.9220   -51.1840 H      9162  TIP9012     0.2052
 46399 OH2         -0.9650   -21.4030    25.2150 O.3    9163  TIP9013    -0.4105
 46400 H1          -1.0120   -20.8560    24.4310 H      9163  TIP9013     0.2052
 46401 H2          -1.8780   -21.5860    25.4360 H      9163  TIP9013     0.2052
 46402 OH2          0.1980   -30.7500    32.7970 O.3    9164  TIP9014    -0.4105
 46403 H1           0.1760   -30.8450    33.7490 H      9164  TIP9014     0.2052
 46404 H2          -0.7090   -30.5660    32.5530 H      9164  TIP9014     0.2052
 46405 OH2         -3.8900   -13.5890   -36.7490 O.3    9165  TIP9015    -0.4105
 46406 H1          -4.7510   -13.9300   -36.5100 H      9165  TIP9015     0.2052
 46407 H2          -3.6640   -14.0530   -37.5550 H      9165  TIP9015     0.2052
 46408 OH2        -14.4600     7.0190    32.2040 O.3    9166  TIP9016    -0.4105
 46409 H1         -14.8490     7.6590    32.8000 H      9166  TIP9016     0.2052
 46410 H2         -15.1930     6.4650    31.9350 H      9166  TIP9016     0.2052
 46411 OH2         32.3570     8.8920    44.9320 O.3    9167  TIP9017    -0.4105
 46412 H1          33.0740     9.1720    45.5010 H      9167  TIP9017     0.2052
 46413 H2          32.1960     7.9820    45.1800 H      9167  TIP9017     0.2052
 46414 OH2         32.0550   -13.1200   -27.2340 O.3    9168  TIP9018    -0.4105
 46415 H1          32.5450   -13.8730   -26.9050 H      9168  TIP9018     0.2052
 46416 H2          32.5860   -12.3620   -26.9870 H      9168  TIP9018     0.2052
 46417 OH2          6.5500    23.4180    26.6090 O.3    9169  TIP9019    -0.4105
 46418 H1           6.1080    24.2440    26.8090 H      9169  TIP9019     0.2052
 46419 H2           6.4380    23.3080    25.6650 H      9169  TIP9019     0.2052
 46420 OH2        -16.6800     8.4610   -49.3060 O.3    9170  TIP9020    -0.4105
 46421 H1         -17.2960     7.7310   -49.3650 H      9170  TIP9020     0.2052
 46422 H2         -17.1430     9.1980   -49.7060 H      9170  TIP9020     0.2052
 46423 OH2          6.7840     8.5180   -44.6640 O.3    9171  TIP9021    -0.4105
 46424 H1           7.1550     7.6850   -44.9580 H      9171  TIP9021     0.2052
 46425 H2           7.2880     8.7420   -43.8810 H      9171  TIP9021     0.2052
 46426 OH2          7.3660    -0.7080   -43.0820 O.3    9172  TIP9022    -0.4105
 46427 H1           6.4690    -0.8640   -42.7850 H      9172  TIP9022     0.2052
 46428 H2           7.8440    -0.4690   -42.2870 H      9172  TIP9022     0.2052
 46429 OH2        -27.9480    12.0090   -25.0110 O.3    9173  TIP9023    -0.4105
 46430 H1         -27.6760    11.2840   -25.5740 H      9173  TIP9023     0.2052
 46431 H2         -27.6490    12.7940   -25.4690 H      9173  TIP9023     0.2052
 46432 OH2         -5.3830    -8.5410    47.6970 O.3    9174  TIP9024    -0.4105
 46433 H1          -4.7350    -9.1560    47.3530 H      9174  TIP9024     0.2052
 46434 H2          -5.3410    -7.7910    47.1030 H      9174  TIP9024     0.2052
 46435 OH2          3.7560   -24.2440   -32.3450 O.3    9175  TIP9025    -0.4105
 46436 H1           3.7660   -24.6000   -33.2330 H      9175  TIP9025     0.2052
 46437 H2           4.2400   -24.8850   -31.8240 H      9175  TIP9025     0.2052
 46438 OH2         20.6060    18.4150    54.3800 O.3    9176  TIP9026    -0.4105
 46439 H1          21.2950    18.2890    53.7280 H      9176  TIP9026     0.2052
 46440 H2          21.0380    18.2540    55.2190 H      9176  TIP9026     0.2052
 46441 OH2          5.8290   -13.2760    53.0580 O.3    9177  TIP9027    -0.4105
 46442 H1           6.7140   -13.5410    53.3100 H      9177  TIP9027     0.2052
 46443 H2           5.4550   -14.0540    52.6440 H      9177  TIP9027     0.2052
 46444 OH2         11.4940   -20.9940    32.3070 O.3    9178  TIP9028    -0.4105
 46445 H1          11.1090   -21.0000    33.1830 H      9178  TIP9028     0.2052
 46446 H2          12.1800   -20.3280    32.3510 H      9178  TIP9028     0.2052
 46447 OH2         -3.9590   -22.6630    43.0110 O.3    9179  TIP9029    -0.4105
 46448 H1          -3.9970   -23.5880    43.2570 H      9179  TIP9029     0.2052
 46449 H2          -4.8670   -22.3650    43.0580 H      9179  TIP9029     0.2052
 46450 OH2        -12.1740    18.7930    51.7660 O.3    9180  TIP9030    -0.4105
 46451 H1         -12.4620    18.8280    52.6790 H      9180  TIP9030     0.2052
 46452 H2         -12.7030    18.0980    51.3750 H      9180  TIP9030     0.2052
 46453 OH2         26.2340   -18.8310    39.3810 O.3    9181  TIP9031    -0.4105
 46454 H1          26.2020   -19.6640    38.9090 H      9181  TIP9031     0.2052
 46455 H2          25.6220   -18.2660    38.9100 H      9181  TIP9031     0.2052
 46456 OH2        -16.6590   -22.4930   -42.3030 O.3    9182  TIP9032    -0.4105
 46457 H1         -16.7740   -23.1230   -43.0150 H      9182  TIP9032     0.2052
 46458 H2         -15.9550   -22.8610   -41.7690 H      9182  TIP9032     0.2052
 46459 OH2        -26.1250    19.4390   -52.8010 O.3    9183  TIP9033    -0.4105
 46460 H1         -26.2490    20.0400   -52.0670 H      9183  TIP9033     0.2052
 46461 H2         -26.9990    19.0910   -52.9770 H      9183  TIP9033     0.2052
 46462 OH2         23.7960    20.8230    23.7580 O.3    9184  TIP9034    -0.4105
 46463 H1          23.3400    21.6260    24.0100 H      9184  TIP9034     0.2052
 46464 H2          23.3850    20.5610    22.9340 H      9184  TIP9034     0.2052
 46465 OH2         22.0300   -18.9810   -20.0400 O.3    9185  TIP9035    -0.4105
 46466 H1          22.3100   -19.3580   -20.8740 H      9185  TIP9035     0.2052
 46467 H2          21.6550   -19.7170   -19.5570 H      9185  TIP9035     0.2052
 46468 OH2        -20.9860   -28.7700   -41.3590 O.3    9186  TIP9036    -0.4105
 46469 H1         -20.4420   -29.3140   -41.9280 H      9186  TIP9036     0.2052
 46470 H2         -21.8830   -29.0450   -41.5510 H      9186  TIP9036     0.2052
 46471 OH2          2.9520    -6.4940   -47.4190 O.3    9187  TIP9037    -0.4105
 46472 H1           2.3170    -6.5950   -48.1280 H      9187  TIP9037     0.2052
 46473 H2           3.2340    -5.5810   -47.4780 H      9187  TIP9037     0.2052
 46474 OH2          6.0960    19.1730    30.8310 O.3    9188  TIP9038    -0.4105
 46475 H1           6.5480    18.4430    31.2540 H      9188  TIP9038     0.2052
 46476 H2           6.7840    19.8180    30.6660 H      9188  TIP9038     0.2052
 46477 OH2         15.3450   -11.2760    24.2770 O.3    9189  TIP9039    -0.4105
 46478 H1          15.2730   -11.0920    25.2140 H      9189  TIP9039     0.2052
 46479 H2          15.6560   -10.4550    23.8950 H      9189  TIP9039     0.2052
 46480 OH2          2.6050     5.2380   -13.9310 O.3    9190  TIP9040    -0.4105
 46481 H1           3.0640     6.0520   -13.7230 H      9190  TIP9040     0.2052
 46482 H2           1.7030     5.3920   -13.6490 H      9190  TIP9040     0.2052
 46483 OH2        -27.2020    14.8490   -28.9170 O.3    9191  TIP9041    -0.4105
 46484 H1         -27.7880    15.3470   -28.3470 H      9191  TIP9041     0.2052
 46485 H2         -27.0520    15.4230   -29.6680 H      9191  TIP9041     0.2052
 46486 OH2        -23.3780   -14.6530   -25.7880 O.3    9192  TIP9042    -0.4105
 46487 H1         -22.9690   -15.4760   -25.5200 H      9192  TIP9042     0.2052
 46488 H2         -23.2600   -14.0710   -25.0370 H      9192  TIP9042     0.2052
 46489 OH2        -15.2990     4.0800    52.0160 O.3    9193  TIP9043    -0.4105
 46490 H1         -14.5090     4.5650    52.2550 H      9193  TIP9043     0.2052
 46491 H2         -15.9220     4.7550    51.7470 H      9193  TIP9043     0.2052
 46492 OH2         13.3620    22.4080    29.7630 O.3    9194  TIP9044    -0.4105
 46493 H1          13.0710    22.7850    28.9330 H      9194  TIP9044     0.2052
 46494 H2          14.0370    21.7760    29.5160 H      9194  TIP9044     0.2052
 46495 OH2        -19.0200    -0.3600   -13.8510 O.3    9195  TIP9045    -0.4105
 46496 H1         -19.5770     0.3480   -13.5280 H      9195  TIP9045     0.2052
 46497 H2         -18.2680     0.0860   -14.2420 H      9195  TIP9045     0.2052
 46498 OH2        -28.9890    25.1400   -41.3780 O.3    9196  TIP9046    -0.4105
 46499 H1         -28.7850    25.8770   -41.9540 H      9196  TIP9046     0.2052
 46500 H2         -29.9370    25.1850   -41.2580 H      9196  TIP9046     0.2052
 46501 OH2         29.7160    10.6100    29.4050 O.3    9197  TIP9047    -0.4105
 46502 H1          29.8350    11.0110    30.2670 H      9197  TIP9047     0.2052
 46503 H2          28.9320    11.0300    29.0520 H      9197  TIP9047     0.2052
 46504 OH2          8.7370    -6.0580   -51.8340 O.3    9198  TIP9048    -0.4105
 46505 H1           8.2130    -6.1900   -51.0440 H      9198  TIP9048     0.2052
 46506 H2           8.8470    -5.1090   -51.8930 H      9198  TIP9048     0.2052
 46507 OH2         -6.3020   -28.7560   -44.4950 O.3    9199  TIP9049    -0.4105
 46508 H1          -6.6160   -28.1500   -43.8240 H      9199  TIP9049     0.2052
 46509 H2          -6.8740   -28.5990   -45.2470 H      9199  TIP9049     0.2052
 46510 OH2          4.7630    22.9830   -29.3450 O.3    9200  TIP9050    -0.4105
 46511 H1           5.6870    23.1130   -29.1320 H      9200  TIP9050     0.2052
 46512 H2           4.4400    23.8570   -29.5620 H      9200  TIP9050     0.2052
 46513 OH2          8.6020   -24.1520    30.8640 O.3    9201  TIP9051    -0.4105
 46514 H1           9.4850   -23.9840    31.1920 H      9201  TIP9051     0.2052
 46515 H2           8.1030   -23.3710    31.1040 H      9201  TIP9051     0.2052
 46516 OH2        -22.6100    -4.8090   -18.8450 O.3    9202  TIP9052    -0.4105
 46517 H1         -23.3470    -4.8340   -18.2340 H      9202  TIP9052     0.2052
 46518 H2         -21.8920    -5.2310   -18.3720 H      9202  TIP9052     0.2052
 46519 OH2        -24.8490    -1.5350   -30.6520 O.3    9203  TIP9053    -0.4105
 46520 H1         -25.3430    -1.5150   -31.4710 H      9203  TIP9053     0.2052
 46521 H2         -24.0960    -0.9650   -30.8120 H      9203  TIP9053     0.2052
 46522 OH2         23.2810    -5.6530    43.8010 O.3    9204  TIP9054    -0.4105
 46523 H1          23.6440    -4.7790    43.6550 H      9204  TIP9054     0.2052
 46524 H2          23.6820    -5.9450    44.6190 H      9204  TIP9054     0.2052
 46525 OH2        -21.2870   -20.9160    27.0630 O.3    9205  TIP9055    -0.4105
 46526 H1         -22.0270   -21.3100    26.6000 H      9205  TIP9055     0.2052
 46527 H2         -20.5320   -21.0930    26.5020 H      9205  TIP9055     0.2052
 46528 OH2          6.4060   -28.9170   -32.3590 O.3    9206  TIP9056    -0.4105
 46529 H1           5.9750   -29.3990   -31.6530 H      9206  TIP9056     0.2052
 46530 H2           7.2960   -28.7670   -32.0400 H      9206  TIP9056     0.2052
 46531 OH2         -5.1770    -2.8740   -35.2460 O.3    9207  TIP9057    -0.4105
 46532 H1          -4.8010    -2.1950   -35.8050 H      9207  TIP9057     0.2052
 46533 H2          -4.9620    -2.5980   -34.3550 H      9207  TIP9057     0.2052
 46534 OH2         30.9000   -22.5870   -36.1630 O.3    9208  TIP9058    -0.4105
 46535 H1          30.6060   -22.0450   -35.4300 H      9208  TIP9058     0.2052
 46536 H2          30.1860   -23.2100   -36.3010 H      9208  TIP9058     0.2052
 46537 OH2        -21.8980    -0.3570   -30.2410 O.3    9209  TIP9059    -0.4105
 46538 H1         -21.2020     0.2190   -29.9250 H      9209  TIP9059     0.2052
 46539 H2         -21.9880    -1.0210   -29.5570 H      9209  TIP9059     0.2052
 46540 OH2        -20.5360    24.3580   -31.3860 O.3    9210  TIP9060    -0.4105
 46541 H1         -20.6950    24.5210   -30.4560 H      9210  TIP9060     0.2052
 46542 H2         -20.1660    25.1780   -31.7130 H      9210  TIP9060     0.2052
 46543 OH2        -29.6150     9.0460   -55.1190 O.3    9211  TIP9061    -0.4105
 46544 H1         -30.4760     8.7020   -54.8800 H      9211  TIP9061     0.2052
 46545 H2         -29.2880     9.4530   -54.3170 H      9211  TIP9061     0.2052
 46546 OH2         14.1960   -15.2280    24.5610 O.3    9212  TIP9062    -0.4105
 46547 H1          14.0820   -16.1780    24.5390 H      9212  TIP9062     0.2052
 46548 H2          13.5690   -14.8960    23.9180 H      9212  TIP9062     0.2052
 46549 OH2        -13.4040   -28.9740   -38.5850 O.3    9213  TIP9063    -0.4105
 46550 H1         -12.9470   -28.2980   -39.0860 H      9213  TIP9063     0.2052
 46551 H2         -13.9850   -28.4870   -38.0000 H      9213  TIP9063     0.2052
 46552 OH2         27.4930   -17.2150    52.7890 O.3    9214  TIP9064    -0.4105
 46553 H1          27.6570   -16.6520    53.5450 H      9214  TIP9064     0.2052
 46554 H2          28.3620   -17.3970    52.4320 H      9214  TIP9064     0.2052
 46555 OH2         18.5900    30.6680   -35.1800 O.3    9215  TIP9065    -0.4105
 46556 H1          19.1470    30.2330   -35.8260 H      9215  TIP9065     0.2052
 46557 H2          18.2070    29.9520   -34.6730 H      9215  TIP9065     0.2052
 46558 OH2         26.0630    20.7870    41.7770 O.3    9216  TIP9066    -0.4105
 46559 H1          26.3910    19.8870    41.7720 H      9216  TIP9066     0.2052
 46560 H2          25.2100    20.7280    42.2080 H      9216  TIP9066     0.2052
 46561 OH2         -4.3150    21.8930    27.9050 O.3    9217  TIP9067    -0.4105
 46562 H1          -4.1290    21.9470    28.8420 H      9217  TIP9067     0.2052
 46563 H2          -4.5070    20.9680    27.7510 H      9217  TIP9067     0.2052
 46564 OH2          8.1460     1.7570    19.0800 O.3    9218  TIP9068    -0.4105
 46565 H1           8.3960     1.1280    19.7570 H      9218  TIP9068     0.2052
 46566 H2           7.1890     1.7440    19.0820 H      9218  TIP9068     0.2052
 46567 OH2         27.7950    -4.2210   -53.9860 O.3    9219  TIP9069    -0.4105
 46568 H1          27.2000    -4.7790   -54.4860 H      9219  TIP9069     0.2052
 46569 H2          27.2180    -3.6550   -53.4720 H      9219  TIP9069     0.2052
 46570 OH2         20.8880    17.3230   -44.6570 O.3    9220  TIP9070    -0.4105
 46571 H1          21.2010    17.7490   -45.4540 H      9220  TIP9070     0.2052
 46572 H2          21.6770    16.9600   -44.2530 H      9220  TIP9070     0.2052
 46573 OH2        -17.4210    32.5130   -29.0630 O.3    9221  TIP9071    -0.4105
 46574 H1         -17.6360    32.2110   -29.9460 H      9221  TIP9071     0.2052
 46575 H2         -16.4640    32.5090   -29.0350 H      9221  TIP9071     0.2052
 46576 OH2         -6.6220   -20.9720   -20.0040 O.3    9222  TIP9072    -0.4105
 46577 H1          -5.8510   -21.0320   -19.4410 H      9222  TIP9072     0.2052
 46578 H2          -7.0350   -21.8330   -19.9390 H      9222  TIP9072     0.2052
 46579 OH2        -27.1450    -6.5620    18.1000 O.3    9223  TIP9073    -0.4105
 46580 H1         -27.8580    -5.9280    18.1780 H      9223  TIP9073     0.2052
 46581 H2         -26.4170    -6.1650    18.5790 H      9223  TIP9073     0.2052
 46582 OH2         10.9470   -23.3490    55.5060 O.3    9224  TIP9074    -0.4105
 46583 H1          11.4130   -22.5370    55.7060 H      9224  TIP9074     0.2052
 46584 H2          11.0020   -23.4280    54.5530 H      9224  TIP9074     0.2052
 46585 OH2         15.8320   -32.9100    34.6580 O.3    9225  TIP9075    -0.4105
 46586 H1          15.7300   -32.1080    35.1710 H      9225  TIP9075     0.2052
 46587 H2          14.9640   -33.0690    34.2870 H      9225  TIP9075     0.2052
 46588 OH2         16.3480    10.5480    43.5470 O.3    9226  TIP9076    -0.4105
 46589 H1          16.3420    10.6370    42.5940 H      9226  TIP9076     0.2052
 46590 H2          17.1740    10.9460    43.8200 H      9226  TIP9076     0.2052
 46591 OH2         15.8990    32.6630   -49.3480 O.3    9227  TIP9077    -0.4105
 46592 H1          15.7270    31.8490   -49.8210 H      9227  TIP9077     0.2052
 46593 H2          15.8630    33.3430   -50.0200 H      9227  TIP9077     0.2052
 46594 OH2        -14.4630    -7.8660    27.3590 O.3    9228  TIP9078    -0.4105
 46595 H1         -15.0860    -8.5870    27.4520 H      9228  TIP9078     0.2052
 46596 H2         -13.6370    -8.2910    27.1270 H      9228  TIP9078     0.2052
 46597 OH2         13.6110     5.8440   -23.5300 O.3    9229  TIP9079    -0.4105
 46598 H1          13.5200     6.5230   -22.8630 H      9229  TIP9079     0.2052
 46599 H2          12.7720     5.8450   -23.9910 H      9229  TIP9079     0.2052
 46600 OH2         -3.0000   -11.1260    54.9090 O.3    9230  TIP9080    -0.4105
 46601 H1          -2.7800   -11.7110    54.1840 H      9230  TIP9080     0.2052
 46602 H2          -2.7750   -11.6240    55.6950 H      9230  TIP9080     0.2052
 46603 OH2         17.7010    21.0500    41.1040 O.3    9231  TIP9081    -0.4105
 46604 H1          18.0490    21.9410    41.1460 H      9231  TIP9081     0.2052
 46605 H2          17.1490    20.9720    41.8830 H      9231  TIP9081     0.2052
 46606 OH2          1.6030     3.3830    47.4460 O.3    9232  TIP9082    -0.4105
 46607 H1           1.4750     2.5670    46.9610 H      9232  TIP9082     0.2052
 46608 H2           2.4670     3.6910    47.1740 H      9232  TIP9082     0.2052
 46609 OH2         13.2920   -28.4050   -21.0430 O.3    9233  TIP9083    -0.4105
 46610 H1          14.1770   -28.0700   -20.8980 H      9233  TIP9083     0.2052
 46611 H2          12.8640   -27.7320   -21.5710 H      9233  TIP9083     0.2052
 46612 OH2          3.1390    20.9910   -43.6480 O.3    9234  TIP9084    -0.4105
 46613 H1           2.3760    20.4800   -43.9190 H      9234  TIP9084     0.2052
 46614 H2           2.7880    21.8580   -43.4480 H      9234  TIP9084     0.2052
 46615 OH2         26.5190    20.5970    23.7700 O.3    9235  TIP9085    -0.4105
 46616 H1          25.5680    20.6960    23.8060 H      9235  TIP9085     0.2052
 46617 H2          26.6590    19.6520    23.7040 H      9235  TIP9085     0.2052
 46618 OH2        -11.9220     4.5600    41.5900 O.3    9236  TIP9086    -0.4105
 46619 H1         -12.3990     4.7440    42.3990 H      9236  TIP9086     0.2052
 46620 H2         -11.9700     3.6090    41.4950 H      9236  TIP9086     0.2052
 46621 OH2         15.2930    -4.9950   -45.1660 O.3    9237  TIP9087    -0.4105
 46622 H1          16.2170    -5.1330   -45.3750 H      9237  TIP9087     0.2052
 46623 H2          15.1520    -5.4930   -44.3600 H      9237  TIP9087     0.2052
 46624 OH2         30.2830    -3.6390   -52.5540 O.3    9238  TIP9088    -0.4105
 46625 H1          29.5740    -3.6590   -53.1970 H      9238  TIP9088     0.2052
 46626 H2          30.1350    -2.8330   -52.0590 H      9238  TIP9088     0.2052
 46627 OH2         20.6010     6.6510    40.8180 O.3    9239  TIP9089    -0.4105
 46628 H1          20.1920     7.4280    41.1980 H      9239  TIP9089     0.2052
 46629 H2          20.3580     5.9380    41.4100 H      9239  TIP9089     0.2052
 46630 OH2         20.2470   -19.0780   -30.8620 O.3    9240  TIP9090    -0.4105
 46631 H1          20.4580   -19.1150   -29.9290 H      9240  TIP9090     0.2052
 46632 H2          20.0160   -18.1630   -31.0200 H      9240  TIP9090     0.2052
 46633 OH2        -17.1330   -27.0780   -52.5300 O.3    9241  TIP9091    -0.4105
 46634 H1         -17.9530   -26.6440   -52.2950 H      9241  TIP9091     0.2052
 46635 H2         -17.0970   -27.0230   -53.4850 H      9241  TIP9091     0.2052
 46636 OH2         12.2300   -22.8670   -24.0840 O.3    9242  TIP9092    -0.4105
 46637 H1          12.5990   -23.5080   -24.6910 H      9242  TIP9092     0.2052
 46638 H2          11.7860   -23.3940   -23.4190 H      9242  TIP9092     0.2052
 46639 OH2        -31.6960    15.0230   -35.4330 O.3    9243  TIP9093    -0.4105
 46640 H1         -31.9300    14.4670   -36.1760 H      9243  TIP9093     0.2052
 46641 H2         -32.4560    15.5920   -35.3110 H      9243  TIP9093     0.2052
 46642 OH2         11.1310   -30.0670    55.2000 O.3    9244  TIP9094    -0.4105
 46643 H1          10.8550   -29.6710    56.0270 H      9244  TIP9094     0.2052
 46644 H2          11.9450   -29.6160    54.9780 H      9244  TIP9094     0.2052
 46645 OH2          8.3330    30.9520    53.0390 O.3    9245  TIP9095    -0.4105
 46646 H1           8.1000    30.9540    52.1110 H      9245  TIP9095     0.2052
 46647 H2           7.5270    31.2030    53.4900 H      9245  TIP9095     0.2052
 46648 OH2         15.8440    -8.7120   -38.1530 O.3    9246  TIP9096    -0.4105
 46649 H1          15.6920    -9.3220   -38.8750 H      9246  TIP9096     0.2052
 46650 H2          16.7890    -8.7440   -38.0070 H      9246  TIP9096     0.2052
 46651 OH2         -5.4300    -1.9970   -24.5730 O.3    9247  TIP9097    -0.4105
 46652 H1          -5.1050    -2.0940   -23.6780 H      9247  TIP9097     0.2052
 46653 H2          -4.6560    -2.1140   -25.1230 H      9247  TIP9097     0.2052
 46654 OH2          5.3620    16.1740   -47.5400 O.3    9248  TIP9098    -0.4105
 46655 H1           4.9140    16.4910   -48.3240 H      9248  TIP9098     0.2052
 46656 H2           4.9280    16.6240   -46.8160 H      9248  TIP9098     0.2052
 46657 OH2         29.8570     5.9420    31.6490 O.3    9249  TIP9099    -0.4105
 46658 H1          29.0650     6.3250    32.0260 H      9249  TIP9099     0.2052
 46659 H2          30.2660     6.6610    31.1670 H      9249  TIP9099     0.2052
 46660 OH2         16.9030     7.2080   -23.6220 O.3    9250  TIP9100    -0.4105
 46661 H1          16.8880     7.7070   -24.4390 H      9250  TIP9100     0.2052
 46662 H2          16.8420     6.2930   -23.8980 H      9250  TIP9100     0.2052
 46663 OH2         30.8680    -4.8970    54.4380 O.3    9251  TIP9101    -0.4105
 46664 H1          30.6240    -5.3720    55.2320 H      9251  TIP9101     0.2052
 46665 H2          30.3010    -5.2590    53.7570 H      9251  TIP9101     0.2052
 46666 OH2         -6.6370    10.9090    35.8880 O.3    9252  TIP9102    -0.4105
 46667 H1          -7.0180    10.5120    36.6720 H      9252  TIP9102     0.2052
 46668 H2          -5.8810    11.4000    36.2110 H      9252  TIP9102     0.2052
 46669 OH2        -16.3300   -22.2650    48.6990 O.3    9253  TIP9103    -0.4105
 46670 H1         -16.6780   -21.5340    48.1880 H      9253  TIP9103     0.2052
 46671 H2         -16.6010   -23.0460    48.2150 H      9253  TIP9103     0.2052
 46672 OH2        -10.4930    19.2030    39.9210 O.3    9254  TIP9104    -0.4105
 46673 H1         -10.0710    18.3560    40.0660 H      9254  TIP9104     0.2052
 46674 H2         -11.3080    18.9910    39.4670 H      9254  TIP9104     0.2052
 46675 OH2        -19.1650    -8.2430   -35.5680 O.3    9255  TIP9105    -0.4105
 46676 H1         -19.8130    -7.5810   -35.8090 H      9255  TIP9105     0.2052
 46677 H2         -18.3410    -7.7590   -35.5020 H      9255  TIP9105     0.2052
 46678 OH2          6.8230    31.1150   -50.1430 O.3    9256  TIP9106    -0.4105
 46679 H1           6.8430    31.8200   -50.7910 H      9256  TIP9106     0.2052
 46680 H2           7.5460    30.5390   -50.3920 H      9256  TIP9106     0.2052
 46681 OH2        -24.4610   -17.0290   -46.2770 O.3    9257  TIP9107    -0.4105
 46682 H1         -25.1770   -16.4270   -46.0750 H      9257  TIP9107     0.2052
 46683 H2         -23.9910   -17.1310   -45.4500 H      9257  TIP9107     0.2052
 46684 OH2          8.7430   -20.9670   -39.8850 O.3    9258  TIP9108    -0.4105
 46685 H1           8.7100   -20.9390   -40.8410 H      9258  TIP9108     0.2052
 46686 H2           8.7810   -21.8990   -39.6730 H      9258  TIP9108     0.2052
 46687 OH2         22.0590   -12.4350    51.1090 O.3    9259  TIP9109    -0.4105
 46688 H1          22.7780   -11.8170    50.9760 H      9259  TIP9109     0.2052
 46689 H2          21.4540   -11.9770    51.6920 H      9259  TIP9109     0.2052
 46690 OH2        -26.6840   -10.5180    47.5180 O.3    9260  TIP9110    -0.4105
 46691 H1         -26.0630    -9.9340    47.9540 H      9260  TIP9110     0.2052
 46692 H2         -26.2100   -11.3450    47.4250 H      9260  TIP9110     0.2052
 46693 OH2         23.2770   -12.6820    17.4840 O.3    9261  TIP9111    -0.4105
 46694 H1          24.0430   -12.5420    16.9270 H      9261  TIP9111     0.2052
 46695 H2          22.9830   -13.5680    17.2690 H      9261  TIP9111     0.2052
 46696 OH2         14.1650     2.4050   -49.8230 O.3    9262  TIP9112    -0.4105
 46697 H1          14.7760     1.7190   -50.0890 H      9262  TIP9112     0.2052
 46698 H2          14.5630     2.7930   -49.0440 H      9262  TIP9112     0.2052
 46699 OH2         -7.4610   -24.1760    50.5710 O.3    9263  TIP9113    -0.4105
 46700 H1          -6.7090   -23.8680    50.0650 H      9263  TIP9113     0.2052
 46701 H2          -7.6180   -25.0640    50.2520 H      9263  TIP9113     0.2052
 46702 OH2        -10.7320     6.3130    51.4030 O.3    9264  TIP9114    -0.4105
 46703 H1         -11.0470     5.6350    52.0010 H      9264  TIP9114     0.2052
 46704 H2         -11.5210     6.6310    50.9640 H      9264  TIP9114     0.2052
 46705 OH2          5.0380   -18.3400   -44.4510 O.3    9265  TIP9115    -0.4105
 46706 H1           4.5300   -18.0090   -43.7100 H      9265  TIP9115     0.2052
 46707 H2           5.8960   -18.5470   -44.0810 H      9265  TIP9115     0.2052
 46708 OH2        -29.9040   -30.0270    51.3850 O.3    9266  TIP9116    -0.4105
 46709 H1         -29.6420   -30.5760    50.6460 H      9266  TIP9116     0.2052
 46710 H2         -29.2330   -30.1830    52.0490 H      9266  TIP9116     0.2052
 46711 OH2         -5.8690    32.5870   -49.7480 O.3    9267  TIP9117    -0.4105
 46712 H1          -5.8080    33.5380   -49.6600 H      9267  TIP9117     0.2052
 46713 H2          -5.8330    32.2600   -48.8490 H      9267  TIP9117     0.2052
 46714 OH2          8.7520    27.1670   -36.7780 O.3    9268  TIP9118    -0.4105
 46715 H1           8.0940    27.6700   -36.2980 H      9268  TIP9118     0.2052
 46716 H2           8.3070    26.3530   -37.0140 H      9268  TIP9118     0.2052
 46717 OH2        -32.4560    -8.1280    45.9760 O.3    9269  TIP9119    -0.4105
 46718 H1         -33.3270    -8.5240    45.9780 H      9269  TIP9119     0.2052
 46719 H2         -32.2980    -7.8890    46.8890 H      9269  TIP9119     0.2052
 46720 OH2         15.6470     1.1570    52.6830 O.3    9270  TIP9120    -0.4105
 46721 H1          16.0340     1.5800    51.9170 H      9270  TIP9120     0.2052
 46722 H2          16.2350     0.4270    52.8770 H      9270  TIP9120     0.2052
 46723 OH2        -31.5340   -28.1290   -34.3100 O.3    9271  TIP9121    -0.4105
 46724 H1         -31.8360   -27.3150   -34.7120 H      9271  TIP9121     0.2052
 46725 H2         -32.2950   -28.7080   -34.3390 H      9271  TIP9121     0.2052
 46726 OH2         -6.4560    -3.5460   -37.5910 O.3    9272  TIP9122    -0.4105
 46727 H1          -6.0110    -3.3340   -36.7710 H      9272  TIP9122     0.2052
 46728 H2          -6.8110    -2.7100   -37.8950 H      9272  TIP9122     0.2052
 46729 OH2        -10.0950    24.3250   -42.0250 O.3    9273  TIP9123    -0.4105
 46730 H1         -10.0150    23.5110   -41.5270 H      9273  TIP9123     0.2052
 46731 H2          -9.2740    24.7880   -41.8600 H      9273  TIP9123     0.2052
 46732 OH2         14.0380     6.9310    46.1100 O.3    9274  TIP9124    -0.4105
 46733 H1          14.8190     7.4620    46.2660 H      9274  TIP9124     0.2052
 46734 H2          13.5620     7.3990    45.4250 H      9274  TIP9124     0.2052
 46735 OH2         10.5980   -20.9640   -53.5740 O.3    9275  TIP9125    -0.4105
 46736 H1          10.9660   -20.1150   -53.3290 H      9275  TIP9125     0.2052
 46737 H2          10.3270   -21.3570   -52.7450 H      9275  TIP9125     0.2052
 46738 OH2         16.0910     9.3390   -22.2000 O.3    9276  TIP9126    -0.4105
 46739 H1          16.6240     9.2930   -21.4060 H      9276  TIP9126     0.2052
 46740 H2          16.4860     8.6990   -22.7910 H      9276  TIP9126     0.2052
 46741 OH2         28.7580   -29.3230    47.2860 O.3    9277  TIP9127    -0.4105
 46742 H1          28.9330   -29.4340    48.2210 H      9277  TIP9127     0.2052
 46743 H2          29.5850   -29.0040    46.9240 H      9277  TIP9127     0.2052
 46744 OH2        -26.6890   -15.0030    26.5520 O.3    9278  TIP9128    -0.4105
 46745 H1         -27.1060   -15.2090    27.3890 H      9278  TIP9128     0.2052
 46746 H2         -26.9740   -14.1110    26.3550 H      9278  TIP9128     0.2052
 46747 OH2        -17.3130    11.3580   -27.4480 O.3    9279  TIP9129    -0.4105
 46748 H1         -18.0960    10.8380   -27.2680 H      9279  TIP9129     0.2052
 46749 H2         -17.5700    12.2580   -27.2460 H      9279  TIP9129     0.2052
 46750 OH2         -0.8090   -25.3990    39.2280 O.3    9280  TIP9130    -0.4105
 46751 H1          -0.2060   -25.9550    39.7220 H      9280  TIP9130     0.2052
 46752 H2          -1.3240   -24.9500    39.8970 H      9280  TIP9130     0.2052
 46753 OH2         10.2930   -22.8270   -32.4280 O.3    9281  TIP9131    -0.4105
 46754 H1           9.6860   -22.7580   -33.1650 H      9281  TIP9131     0.2052
 46755 H2           9.7770   -22.5640   -31.6660 H      9281  TIP9131     0.2052
 46756 OH2          4.8860    13.6430    54.3080 O.3    9282  TIP9132    -0.4105
 46757 H1           4.2500    13.8580    54.9910 H      9282  TIP9132     0.2052
 46758 H2           4.3710    13.2040    53.6310 H      9282  TIP9132     0.2052
 46759 OH2         13.7440     0.1300    28.3860 O.3    9283  TIP9133    -0.4105
 46760 H1          12.8640    -0.1130    28.0980 H      9283  TIP9133     0.2052
 46761 H2          13.9560    -0.5060    29.0690 H      9283  TIP9133     0.2052
 46762 OH2        -24.5150   -29.0630    29.5090 O.3    9284  TIP9134    -0.4105
 46763 H1         -24.4730   -29.2680    28.5750 H      9284  TIP9134     0.2052
 46764 H2         -24.7250   -28.1300    29.5400 H      9284  TIP9134     0.2052
 46765 OH2         -8.3940     2.2930   -54.9770 O.3    9285  TIP9135    -0.4105
 46766 H1          -7.7480     2.1300   -54.2890 H      9285  TIP9135     0.2052
 46767 H2          -8.0310     1.8660   -55.7530 H      9285  TIP9135     0.2052
 46768 OH2         10.9210   -25.6870    39.8440 O.3    9286  TIP9136    -0.4105
 46769 H1          11.1970   -26.5710    39.6020 H      9286  TIP9136     0.2052
 46770 H2          10.3420   -25.4130    39.1330 H      9286  TIP9136     0.2052
 46771 OH2        -24.0150   -26.5300    30.5870 O.3    9287  TIP9137    -0.4105
 46772 H1         -23.3750   -25.9920    30.1220 H      9287  TIP9137     0.2052
 46773 H2         -24.5150   -25.9060    31.1140 H      9287  TIP9137     0.2052
 46774 OH2         22.2680    10.7030   -24.9870 O.3    9288  TIP9138    -0.4105
 46775 H1          22.1280    11.4530   -25.5650 H      9288  TIP9138     0.2052
 46776 H2          23.0850    10.3110   -25.2970 H      9288  TIP9138     0.2052
 46777 OH2        -23.3590   -26.3550    23.0330 O.3    9289  TIP9139    -0.4105
 46778 H1         -23.8330   -26.0310    22.2680 H      9289  TIP9139     0.2052
 46779 H2         -23.7410   -25.8800    23.7710 H      9289  TIP9139     0.2052
 46780 OH2          1.6650    12.3770    49.2960 O.3    9290  TIP9140    -0.4105
 46781 H1           1.2750    11.8040    49.9570 H      9290  TIP9140     0.2052
 46782 H2           0.9520    12.5560    48.6830 H      9290  TIP9140     0.2052
 46783 OH2         -2.9600     8.0810    54.5900 O.3    9291  TIP9141    -0.4105
 46784 H1          -2.0030     8.0680    54.5860 H      9291  TIP9141     0.2052
 46785 H2          -3.2060     7.4230    55.2390 H      9291  TIP9141     0.2052
 46786 OH2          5.0780   -20.8800   -30.0630 O.3    9292  TIP9142    -0.4105
 46787 H1           4.1500   -21.0900   -29.9560 H      9292  TIP9142     0.2052
 46788 H2           5.2350   -20.9570   -31.0040 H      9292  TIP9142     0.2052
 46789 OH2         -2.0120   -32.4560    29.2670 O.3    9293  TIP9143    -0.4105
 46790 H1          -1.9590   -33.0160    28.4920 H      9293  TIP9143     0.2052
 46791 H2          -1.1000   -32.2910    29.5070 H      9293  TIP9143     0.2052
 46792 OH2          4.5490    21.3270    52.3080 O.3    9294  TIP9144    -0.4105
 46793 H1           4.8840    21.9740    52.9290 H      9294  TIP9144     0.2052
 46794 H2           4.3070    20.5760    52.8510 H      9294  TIP9144     0.2052
 46795 OH2         11.9380    -7.5620    43.7190 O.3    9295  TIP9145    -0.4105
 46796 H1          12.2810    -6.6760    43.8360 H      9295  TIP9145     0.2052
 46797 H2          11.4210    -7.7260    44.5080 H      9295  TIP9145     0.2052
 46798 OH2        -27.7920    10.0370    48.0740 O.3    9296  TIP9146    -0.4105
 46799 H1         -27.7970    10.3850    48.9660 H      9296  TIP9146     0.2052
 46800 H2         -28.0480     9.1200    48.1730 H      9296  TIP9146     0.2052
 46801 OH2          8.8880   -10.7850   -47.2800 O.3    9297  TIP9147    -0.4105
 46802 H1           8.2280   -10.0950   -47.3460 H      9297  TIP9147     0.2052
 46803 H2           9.5830   -10.4020   -46.7440 H      9297  TIP9147     0.2052
 46804 OH2        -31.3910    -9.2700   -24.6530 O.3    9298  TIP9148    -0.4105
 46805 H1         -31.0090    -8.4410   -24.9430 H      9298  TIP9148     0.2052
 46806 H2         -31.8020    -9.0650   -23.8130 H      9298  TIP9148     0.2052
 46807 OH2         25.6030    -5.5720    45.4600 O.3    9299  TIP9149    -0.4105
 46808 H1          26.1640    -6.0450    44.8450 H      9299  TIP9149     0.2052
 46809 H2          25.8190    -5.9430    46.3150 H      9299  TIP9149     0.2052
 46810 OH2         -0.2150   -19.7990   -40.5320 O.3    9300  TIP9150    -0.4105
 46811 H1           0.6580   -19.8570   -40.1430 H      9300  TIP9150     0.2052
 46812 H2          -0.8140   -19.8580   -39.7880 H      9300  TIP9150     0.2052
 46813 OH2          5.8700   -20.9050    48.0820 O.3    9301  TIP9151    -0.4105
 46814 H1           6.4990   -20.4470    47.5250 H      9301  TIP9151     0.2052
 46815 H2           6.3130   -21.7190    48.3250 H      9301  TIP9151     0.2052
 46816 OH2          2.0090   -30.0390   -51.2680 O.3    9302  TIP9152    -0.4105
 46817 H1           2.3410   -29.9660   -52.1630 H      9302  TIP9152     0.2052
 46818 H2           1.0650   -29.9030   -51.3500 H      9302  TIP9152     0.2052
 46819 OH2         18.4900     7.5180    52.6530 O.3    9303  TIP9153    -0.4105
 46820 H1          18.4710     6.6350    53.0220 H      9303  TIP9153     0.2052
 46821 H2          17.9060     7.4740    51.8960 H      9303  TIP9153     0.2052
 46822 OH2        -11.4930    21.3190    48.8130 O.3    9304  TIP9154    -0.4105
 46823 H1         -12.1620    20.6530    48.6530 H      9304  TIP9154     0.2052
 46824 H2         -11.3860    21.3280    49.7640 H      9304  TIP9154     0.2052
 46825 OH2          9.0280    -6.8670   -19.6730 O.3    9305  TIP9155    -0.4105
 46826 H1           8.8720    -5.9390   -19.5020 H      9305  TIP9155     0.2052
 46827 H2           9.5380    -7.1680   -18.9210 H      9305  TIP9155     0.2052
 46828 OH2        -18.2410     8.5720   -23.7780 O.3    9306  TIP9156    -0.4105
 46829 H1         -17.4140     8.0990   -23.8660 H      9306  TIP9156     0.2052
 46830 H2         -18.4040     8.5980   -22.8350 H      9306  TIP9156     0.2052
 46831 OH2         12.6590   -25.5770    36.8480 O.3    9307  TIP9157    -0.4105
 46832 H1          12.3710   -24.6650    36.8790 H      9307  TIP9157     0.2052
 46833 H2          13.5590   -25.5330    36.5240 H      9307  TIP9157     0.2052
 46834 OH2        -13.1790   -30.3650    39.9240 O.3    9308  TIP9158    -0.4105
 46835 H1         -12.2280   -30.2850    39.9900 H      9308  TIP9158     0.2052
 46836 H2         -13.5180   -29.6190    40.4200 H      9308  TIP9158     0.2052
 46837 OH2         13.6520   -14.3280   -51.8880 O.3    9309  TIP9159    -0.4105
 46838 H1          12.7750   -14.3970   -52.2670 H      9309  TIP9159     0.2052
 46839 H2          14.2040   -14.0340   -52.6120 H      9309  TIP9159     0.2052
 46840 OH2        -19.2920    -6.9280   -52.2990 O.3    9310  TIP9160    -0.4105
 46841 H1         -19.5140    -6.9870   -53.2280 H      9310  TIP9160     0.2052
 46842 H2         -18.3400    -6.8310   -52.2850 H      9310  TIP9160     0.2052
 46843 OH2        -32.5000   -20.3150   -23.5380 O.3    9311  TIP9161    -0.4105
 46844 H1         -33.0030   -21.0380   -23.1650 H      9311  TIP9161     0.2052
 46845 H2         -31.5860   -20.5830   -23.4430 H      9311  TIP9161     0.2052
 46846 OH2        -24.7960   -32.7490   -51.7540 O.3    9312  TIP9162    -0.4105
 46847 H1         -24.6700   -33.6900   -51.8760 H      9312  TIP9162     0.2052
 46848 H2         -23.9630   -32.4410   -51.3950 H      9312  TIP9162     0.2052
 46849 OH2         -1.2930   -12.5570    44.4580 O.3    9313  TIP9163    -0.4105
 46850 H1          -1.9670   -12.9460    45.0140 H      9313  TIP9163     0.2052
 46851 H2          -1.6680   -12.5730    43.5780 H      9313  TIP9163     0.2052
 46852 OH2        -12.1740    25.6540   -43.5110 O.3    9314  TIP9164    -0.4105
 46853 H1         -11.6890    26.2100   -44.1210 H      9314  TIP9164     0.2052
 46854 H2         -11.5070    25.3130   -42.9150 H      9314  TIP9164     0.2052
 46855 OH2         12.4670    13.8860   -54.5150 O.3    9315  TIP9165    -0.4105
 46856 H1          12.5580    13.2180   -55.1940 H      9315  TIP9165     0.2052
 46857 H2          12.2910    13.3930   -53.7150 H      9315  TIP9165     0.2052
 46858 OH2        -27.7170    22.8930   -47.3870 O.3    9316  TIP9166    -0.4105
 46859 H1         -28.3250    23.2740   -48.0200 H      9316  TIP9166     0.2052
 46860 H2         -28.1870    22.1440   -47.0220 H      9316  TIP9166     0.2052
 46861 OH2          6.5670    -7.4800   -38.6440 O.3    9317  TIP9167    -0.4105
 46862 H1           6.9980    -8.3300   -38.5550 H      9317  TIP9167     0.2052
 46863 H2           5.6400    -7.6910   -38.7580 H      9317  TIP9167     0.2052
 46864 OH2        -20.1490    26.9750   -49.1000 O.3    9318  TIP9168    -0.4105
 46865 H1         -20.6540    27.7880   -49.0770 H      9318  TIP9168     0.2052
 46866 H2         -20.7260    26.3230   -48.7020 H      9318  TIP9168     0.2052
 46867 OH2        -32.2650    30.7300    19.3100 O.3    9319  TIP9169    -0.4105
 46868 H1         -32.4620    30.0890    18.6270 H      9319  TIP9169     0.2052
 46869 H2         -33.0880    31.2000    19.4420 H      9319  TIP9169     0.2052
 46870 OH2         -0.3860    25.0090    36.9820 O.3    9320  TIP9170    -0.4105
 46871 H1          -0.9050    25.4640    37.6460 H      9320  TIP9170     0.2052
 46872 H2           0.1860    24.4270    37.4830 H      9320  TIP9170     0.2052
 46873 OH2         18.5760    -4.9970   -32.2280 O.3    9321  TIP9171    -0.4105
 46874 H1          18.1530    -5.1830   -31.3890 H      9321  TIP9171     0.2052
 46875 H2          17.8560    -4.9700   -32.8580 H      9321  TIP9171     0.2052
 46876 OH2        -17.8620   -17.1060    42.2200 O.3    9322  TIP9172    -0.4105
 46877 H1         -17.8630   -18.0460    42.3980 H      9322  TIP9172     0.2052
 46878 H2         -16.9810   -16.9240    41.8940 H      9322  TIP9172     0.2052
 46879 OH2        -19.3780   -28.1680    45.1660 O.3    9323  TIP9173    -0.4105
 46880 H1         -19.9430   -28.8120    44.7410 H      9323  TIP9173     0.2052
 46881 H2         -19.7730   -28.0340    46.0280 H      9323  TIP9173     0.2052
 46882 OH2        -29.1270    14.6750    19.8620 O.3    9324  TIP9174    -0.4105
 46883 H1         -28.3670    14.4270    20.3890 H      9324  TIP9174     0.2052
 46884 H2         -28.7610    14.9130    19.0100 H      9324  TIP9174     0.2052
 46885 OH2        -32.4720   -30.8950    30.9400 O.3    9325  TIP9175    -0.4105
 46886 H1         -33.1070   -31.6030    30.8340 H      9325  TIP9175     0.2052
 46887 H2         -32.9480   -30.1050    30.6850 H      9325  TIP9175     0.2052
 46888 OH2         -6.4590     5.4450   -54.8550 O.3    9326  TIP9176    -0.4105
 46889 H1          -5.6240     5.8610   -55.0720 H      9326  TIP9176     0.2052
 46890 H2          -6.4720     4.6450   -55.3800 H      9326  TIP9176     0.2052
 46891 OH2        -26.9480    27.5470    49.9230 O.3    9327  TIP9177    -0.4105
 46892 H1         -26.8240    27.5910    50.8710 H      9327  TIP9177     0.2052
 46893 H2         -27.6940    26.9580    49.8060 H      9327  TIP9177     0.2052
 46894 OH2         29.9260    12.6070   -31.2590 O.3    9328  TIP9178    -0.4105
 46895 H1          30.4230    13.1390   -31.8800 H      9328  TIP9178     0.2052
 46896 H2          30.4830    12.5620   -30.4820 H      9328  TIP9178     0.2052
 46897 OH2         -5.1660   -13.3480    55.1090 O.3    9329  TIP9179    -0.4105
 46898 H1          -4.6320   -12.9920    55.8190 H      9329  TIP9179     0.2052
 46899 H2          -4.7060   -13.0890    54.3100 H      9329  TIP9179     0.2052
 46900 OH2        -30.3620   -32.9160    30.5830 O.3    9330  TIP9180    -0.4105
 46901 H1         -30.9660   -32.1730    30.5900 H      9330  TIP9180     0.2052
 46902 H2         -29.5150   -32.5390    30.8210 H      9330  TIP9180     0.2052
 46903 OH2          5.5890   -12.3040    40.8850 O.3    9331  TIP9181    -0.4105
 46904 H1           5.8450   -11.3820    40.9040 H      9331  TIP9181     0.2052
 46905 H2           6.4030   -12.7830    41.0390 H      9331  TIP9181     0.2052
 46906 OH2         25.4630   -21.1660    43.9970 O.3    9332  TIP9182    -0.4105
 46907 H1          26.2370   -21.6570    44.2740 H      9332  TIP9182     0.2052
 46908 H2          25.7740   -20.6130    43.2800 H      9332  TIP9182     0.2052
 46909 OH2         -6.1450    -0.7430    23.6280 O.3    9333  TIP9183    -0.4105
 46910 H1          -6.6850    -0.2870    24.2730 H      9333  TIP9183     0.2052
 46911 H2          -5.2800    -0.3390    23.7120 H      9333  TIP9183     0.2052
 46912 OH2         -7.4550    14.3630   -32.9270 O.3    9334  TIP9184    -0.4105
 46913 H1          -7.3380    15.1180   -32.3490 H      9334  TIP9184     0.2052
 46914 H2          -6.9450    14.5770   -33.7080 H      9334  TIP9184     0.2052
 46915 OH2        -31.6640   -13.8490   -41.0900 O.3    9335  TIP9185    -0.4105
 46916 H1         -32.5330   -14.1520   -41.3530 H      9335  TIP9185     0.2052
 46917 H2         -31.8330   -13.0940   -40.5270 H      9335  TIP9185     0.2052
 46918 OH2         19.7260   -16.3250    35.6040 O.3    9336  TIP9186    -0.4105
 46919 H1          19.2720   -17.1510    35.7750 H      9336  TIP9186     0.2052
 46920 H2          19.7810   -15.8990    36.4590 H      9336  TIP9186     0.2052
 46921 OH2         24.5190    -0.4160    29.7760 O.3    9337  TIP9187    -0.4105
 46922 H1          25.3970    -0.6790    29.5000 H      9337  TIP9187     0.2052
 46923 H2          24.1990     0.1350    29.0620 H      9337  TIP9187     0.2052
 46924 OH2        -27.1090     4.4080    31.1820 O.3    9338  TIP9188    -0.4105
 46925 H1         -26.9760     5.3380    31.3670 H      9338  TIP9188     0.2052
 46926 H2         -27.6310     4.0900    31.9180 H      9338  TIP9188     0.2052
 46927 OH2          2.3800    21.3330    29.8790 O.3    9339  TIP9189    -0.4105
 46928 H1           2.1610    20.4150    30.0420 H      9339  TIP9189     0.2052
 46929 H2           3.2050    21.4680    30.3450 H      9339  TIP9189     0.2052
 46930 OH2         11.1980    27.7430    53.8940 O.3    9340  TIP9190    -0.4105
 46931 H1          11.4830    28.4780    54.4370 H      9340  TIP9190     0.2052
 46932 H2          10.2650    27.6480    54.0900 H      9340  TIP9190     0.2052
 46933 OH2         -3.0450   -21.6980    37.8250 O.3    9341  TIP9191    -0.4105
 46934 H1          -2.2760   -21.8410    37.2730 H      9341  TIP9191     0.2052
 46935 H2          -2.7920   -22.0410    38.6820 H      9341  TIP9191     0.2052
 46936 OH2        -22.5780     3.6370    20.9340 O.3    9342  TIP9192    -0.4105
 46937 H1         -23.3100     3.9100    21.4870 H      9342  TIP9192     0.2052
 46938 H2         -22.4440     2.7150    21.1510 H      9342  TIP9192     0.2052
 46939 OH2         25.5820    -8.8240   -27.4290 O.3    9343  TIP9193    -0.4105
 46940 H1          25.8520    -7.9890   -27.0470 H      9343  TIP9193     0.2052
 46941 H2          24.7550    -9.0310   -26.9930 H      9343  TIP9193     0.2052
 46942 OH2         19.5270    -3.4570    54.9970 O.3    9344  TIP9194    -0.4105
 46943 H1          18.8170    -3.9970    54.6500 H      9344  TIP9194     0.2052
 46944 H2          19.6640    -3.7820    55.8860 H      9344  TIP9194     0.2052
 46945 OH2         28.9030    14.4750   -44.6290 O.3    9345  TIP9195    -0.4105
 46946 H1          28.8600    14.5550   -43.6760 H      9345  TIP9195     0.2052
 46947 H2          28.0010    14.6000   -44.9210 H      9345  TIP9195     0.2052
 46948 OH2          8.4280     0.8650    26.0180 O.3    9346  TIP9196    -0.4105
 46949 H1           8.5130     0.4770    25.1470 H      9346  TIP9196     0.2052
 46950 H2           7.5800     1.3080    26.0020 H      9346  TIP9196     0.2052
 46951 OH2         26.6720    -5.8880    17.1640 O.3    9347  TIP9197    -0.4105
 46952 H1          26.2750    -6.0700    16.3120 H      9347  TIP9197     0.2052
 46953 H2          27.5320    -6.3070    17.1220 H      9347  TIP9197     0.2052
 46954 OH2          7.8480    -4.1450   -45.4470 O.3    9348  TIP9198    -0.4105
 46955 H1           8.1310    -4.9120   -45.9440 H      9348  TIP9198     0.2052
 46956 H2           8.1340    -4.3220   -44.5500 H      9348  TIP9198     0.2052
 46957 OH2         11.4980   -32.6790   -32.8570 O.3    9349  TIP9199    -0.4105
 46958 H1          10.9150   -32.8200   -33.6030 H      9349  TIP9199     0.2052
 46959 H2          11.3230   -33.4170   -32.2730 H      9349  TIP9199     0.2052
 46960 OH2         14.1730     0.5760    21.4880 O.3    9350  TIP9200    -0.4105
 46961 H1          14.7710     1.1570    21.0180 H      9350  TIP9200     0.2052
 46962 H2          13.7350     0.0740    20.8000 H      9350  TIP9200     0.2052
 46963 OH2         10.3480     7.6400   -25.9710 O.3    9351  TIP9201    -0.4105
 46964 H1          10.1710     8.4950   -26.3630 H      9351  TIP9201     0.2052
 46965 H2           9.4880     7.2280   -25.8930 H      9351  TIP9201     0.2052
 46966 OH2         12.9390     4.8400   -31.0080 O.3    9352  TIP9202    -0.4105
 46967 H1          13.5190     4.0910   -31.1480 H      9352  TIP9202     0.2052
 46968 H2          13.5140     5.6030   -31.0640 H      9352  TIP9202     0.2052
 46969 OH2        -28.1570    -8.0790   -30.5520 O.3    9353  TIP9203    -0.4105
 46970 H1         -28.7380    -7.5970   -29.9640 H      9353  TIP9203     0.2052
 46971 H2         -28.6140    -8.0810   -31.3930 H      9353  TIP9203     0.2052
 46972 OH2          5.1270   -23.1120   -28.0720 O.3    9354  TIP9204    -0.4105
 46973 H1           4.4640   -22.8760   -27.4230 H      9354  TIP9204     0.2052
 46974 H2           5.2370   -22.3220   -28.6010 H      9354  TIP9204     0.2052
 46975 OH2         28.3830    -3.6320   -49.4980 O.3    9355  TIP9205    -0.4105
 46976 H1          28.4750    -2.6840   -49.3990 H      9355  TIP9205     0.2052
 46977 H2          28.6120    -3.9860   -48.6390 H      9355  TIP9205     0.2052
 46978 OH2          6.4460    18.4080    39.7930 O.3    9356  TIP9206    -0.4105
 46979 H1           7.4030    18.3860    39.7860 H      9356  TIP9206     0.2052
 46980 H2           6.2000    17.8550    40.5350 H      9356  TIP9206     0.2052
 46981 OH2         -3.8630   -27.3090    32.3400 O.3    9357  TIP9207    -0.4105
 46982 H1          -2.9930   -27.0950    32.0030 H      9357  TIP9207     0.2052
 46983 H2          -4.3690   -26.5040    32.2280 H      9357  TIP9207     0.2052
 46984 OH2         11.2620    24.6810   -43.2260 O.3    9358  TIP9208    -0.4105
 46985 H1          11.4460    24.8670   -42.3050 H      9358  TIP9208     0.2052
 46986 H2          10.9990    25.5250   -43.5930 H      9358  TIP9208     0.2052
 46987 OH2         -5.9280   -16.8580   -54.3750 O.3    9359  TIP9209    -0.4105
 46988 H1          -6.8330   -16.5680   -54.4890 H      9359  TIP9209     0.2052
 46989 H2          -6.0030   -17.7680   -54.0870 H      9359  TIP9209     0.2052
 46990 OH2        -17.2880    11.3960   -19.4260 O.3    9360  TIP9210    -0.4105
 46991 H1         -18.0030    11.7740   -19.9380 H      9360  TIP9210     0.2052
 46992 H2         -17.4660    11.6710   -18.5270 H      9360  TIP9210     0.2052
 46993 OH2         -0.5250    23.0660    32.1220 O.3    9361  TIP9211    -0.4105
 46994 H1          -0.4210    23.1250    31.1720 H      9361  TIP9211     0.2052
 46995 H2          -1.2880    23.6120    32.3140 H      9361  TIP9211     0.2052
 46996 OH2         17.1800    -0.9460    44.7110 O.3    9362  TIP9212    -0.4105
 46997 H1          16.6420    -0.4780    45.3500 H      9362  TIP9212     0.2052
 46998 H2          16.5480    -1.3960    44.1490 H      9362  TIP9212     0.2052
 46999 OH2        -26.5440   -11.0890    52.5630 O.3    9363  TIP9213    -0.4105
 47000 H1         -25.6760   -10.7700    52.3160 H      9363  TIP9213     0.2052
 47001 H2         -26.8670   -11.5350    51.7800 H      9363  TIP9213     0.2052
 47002 OH2         21.8640     2.4840    35.9110 O.3    9364  TIP9214    -0.4105
 47003 H1          22.0390     1.6870    36.4120 H      9364  TIP9214     0.2052
 47004 H2          21.9730     3.1940    36.5440 H      9364  TIP9214     0.2052
 47005 OH2         13.3180     1.4090    38.6890 O.3    9365  TIP9215    -0.4105
 47006 H1          13.4380     2.3280    38.4480 H      9365  TIP9215     0.2052
 47007 H2          14.2040     1.0830    38.8430 H      9365  TIP9215     0.2052
 47008 OH2        -28.6550   -30.0310   -45.3490 O.3    9366  TIP9216    -0.4105
 47009 H1         -29.4830   -30.5060   -45.2720 H      9366  TIP9216     0.2052
 47010 H2         -28.6230   -29.4770   -44.5690 H      9366  TIP9216     0.2052
 47011 OH2         17.9790   -23.6820   -18.8700 O.3    9367  TIP9217    -0.4105
 47012 H1          18.9040   -23.6360   -18.6290 H      9367  TIP9217     0.2052
 47013 H2          17.5650   -24.1500   -18.1440 H      9367  TIP9217     0.2052
 47014 OH2         -1.0310    17.0240    44.4310 O.3    9368  TIP9218    -0.4105
 47015 H1          -0.7840    16.6750    43.5750 H      9368  TIP9218     0.2052
 47016 H2          -1.0980    17.9690    44.2940 H      9368  TIP9218     0.2052
 47017 OH2         15.3460   -13.6750   -49.9960 O.3    9369  TIP9219    -0.4105
 47018 H1          14.7980   -14.0540   -50.6830 H      9369  TIP9219     0.2052
 47019 H2          16.2350   -13.9500   -50.2180 H      9369  TIP9219     0.2052
 47020 OH2        -30.8210    11.8190    33.0420 O.3    9370  TIP9220    -0.4105
 47021 H1         -31.4940    12.4630    33.2620 H      9370  TIP9220     0.2052
 47022 H2         -30.9660    11.6270    32.1150 H      9370  TIP9220     0.2052
 47023 OH2         15.5040    11.4870   -34.6390 O.3    9371  TIP9221    -0.4105
 47024 H1          14.9320    11.8540   -35.3120 H      9371  TIP9221     0.2052
 47025 H2          15.9700    12.2430   -34.2810 H      9371  TIP9221     0.2052
 47026 OH2         -1.9360    -2.8970   -29.2060 O.3    9372  TIP9222    -0.4105
 47027 H1          -2.3690    -3.3370   -29.9370 H      9372  TIP9222     0.2052
 47028 H2          -2.6490    -2.4890   -28.7140 H      9372  TIP9222     0.2052
 47029 OH2        -19.3180    32.2150   -44.1610 O.3    9373  TIP9223    -0.4105
 47030 H1         -19.0110    32.6680   -44.9470 H      9373  TIP9223     0.2052
 47031 H2         -20.0620    32.7360   -43.8590 H      9373  TIP9223     0.2052
 47032 OH2        -22.6790   -24.2290    25.8220 O.3    9374  TIP9224    -0.4105
 47033 H1         -23.0100   -23.6540    25.1320 H      9374  TIP9224     0.2052
 47034 H2         -21.7340   -24.2670    25.6690 H      9374  TIP9224     0.2052
 47035 OH2         13.1310    21.0000   -18.1290 O.3    9375  TIP9225    -0.4105
 47036 H1          13.3520    21.9220   -18.2580 H      9375  TIP9225     0.2052
 47037 H2          13.9080    20.6220   -17.7160 H      9375  TIP9225     0.2052
 47038 OH2         31.5170    29.8970    53.3090 O.3    9376  TIP9226    -0.4105
 47039 H1          31.4110    28.9630    53.4910 H      9376  TIP9226     0.2052
 47040 H2          30.9750    30.3330    53.9670 H      9376  TIP9226     0.2052
 47041 OH2         32.3240     0.1910   -27.7110 O.3    9377  TIP9227    -0.4105
 47042 H1          32.5170     0.1680   -28.6490 H      9377  TIP9227     0.2052
 47043 H2          33.1520    -0.0400   -27.2900 H      9377  TIP9227     0.2052
 47044 OH2        -18.6670    -5.1990   -54.9730 O.3    9378  TIP9228    -0.4105
 47045 H1         -18.3890    -6.0180   -55.3830 H      9378  TIP9228     0.2052
 47046 H2         -17.8520    -4.7260   -54.8050 H      9378  TIP9228     0.2052
 47047 OH2         -6.0230   -22.5180   -53.5210 O.3    9379  TIP9229    -0.4105
 47048 H1          -5.5100   -22.9370   -54.2120 H      9379  TIP9229     0.2052
 47049 H2          -5.3890   -22.3370   -52.8280 H      9379  TIP9229     0.2052
 47050 OH2         32.6720   -24.9690    34.5890 O.3    9380  TIP9230    -0.4105
 47051 H1          33.1360   -24.1980    34.9160 H      9380  TIP9230     0.2052
 47052 H2          31.9780   -24.6130    34.0340 H      9380  TIP9230     0.2052
 47053 OH2          7.5450    18.6330   -54.1940 O.3    9381  TIP9231    -0.4105
 47054 H1           7.0890    17.9750   -53.6700 H      9381  TIP9231     0.2052
 47055 H2           6.9900    19.4110   -54.1390 H      9381  TIP9231     0.2052
 47056 OH2          0.1490    12.6780    37.5070 O.3    9382  TIP9232    -0.4105
 47057 H1           0.7520    13.0670    38.1410 H      9382  TIP9232     0.2052
 47058 H2           0.7130    12.1830    36.9120 H      9382  TIP9232     0.2052
 47059 OH2         -0.1790     2.0860   -25.8020 O.3    9383  TIP9233    -0.4105
 47060 H1           0.1340     1.3050   -25.3470 H      9383  TIP9233     0.2052
 47061 H2          -0.8140     2.4760   -25.2000 H      9383  TIP9233     0.2052
 47062 OH2        -21.2160    -9.3590    31.6800 O.3    9384  TIP9234    -0.4105
 47063 H1         -20.9320   -10.0240    31.0530 H      9384  TIP9234     0.2052
 47064 H2         -20.5400    -8.6830    31.6360 H      9384  TIP9234     0.2052
 47065 OH2        -33.0290    19.1300    45.9710 O.3    9385  TIP9235    -0.4105
 47066 H1         -32.8060    18.7440    46.8180 H      9385  TIP9235     0.2052
 47067 H2         -32.5630    19.9670    45.9590 H      9385  TIP9235     0.2052
 47068 OH2         -4.6350    27.0130    21.1100 O.3    9386  TIP9236    -0.4105
 47069 H1          -3.7880    27.4430    20.9950 H      9386  TIP9236     0.2052
 47070 H2          -5.2520    27.7320    21.2500 H      9386  TIP9236     0.2052
 47071 OH2        -14.9500    21.2630    20.0940 O.3    9387  TIP9237    -0.4105
 47072 H1         -14.8560    21.6620    20.9590 H      9387  TIP9237     0.2052
 47073 H2         -15.0490    22.0040    19.4970 H      9387  TIP9237     0.2052
 47074 OH2         21.4880    -3.0430   -32.8130 O.3    9388  TIP9238    -0.4105
 47075 H1          22.2360    -3.6390   -32.8760 H      9388  TIP9238     0.2052
 47076 H2          21.2660    -2.8410   -33.7220 H      9388  TIP9238     0.2052
 47077 OH2         22.5160   -14.7900    49.5470 O.3    9389  TIP9239    -0.4105
 47078 H1          23.0810   -14.3850    48.8880 H      9389  TIP9239     0.2052
 47079 H2          22.1970   -14.0560    50.0720 H      9389  TIP9239     0.2052
 47080 OH2        -21.0860    15.2280   -38.0770 O.3    9390  TIP9240    -0.4105
 47081 H1         -21.5460    16.0600   -37.9630 H      9390  TIP9240     0.2052
 47082 H2         -20.1910    15.4790   -38.3070 H      9390  TIP9240     0.2052
 47083 OH2         15.9830    -3.7470   -37.1480 O.3    9391  TIP9241    -0.4105
 47084 H1          15.5310    -4.4980   -36.7650 H      9391  TIP9241     0.2052
 47085 H2          16.6730    -4.1320   -37.6880 H      9391  TIP9241     0.2052
 47086 OH2        -14.5400   -15.1600    40.8570 O.3    9392  TIP9242    -0.4105
 47087 H1         -14.8160   -16.0260    41.1580 H      9392  TIP9242     0.2052
 47088 H2         -13.6000   -15.1340    41.0330 H      9392  TIP9242     0.2052
 47089 OH2         13.1470    -9.7000   -33.2940 O.3    9393  TIP9243    -0.4105
 47090 H1          14.0980    -9.6770   -33.1890 H      9393  TIP9243     0.2052
 47091 H2          12.9810   -10.4870   -33.8130 H      9393  TIP9243     0.2052
 47092 OH2         32.9620    -4.1410    36.4610 O.3    9394  TIP9244    -0.4105
 47093 H1          33.5580    -4.6460    35.9080 H      9394  TIP9244     0.2052
 47094 H2          32.0940    -4.3110    36.0970 H      9394  TIP9244     0.2052
 47095 OH2         30.9970    29.9610   -53.6900 O.3    9395  TIP9245    -0.4105
 47096 H1          30.6670    29.7340   -54.5600 H      9395  TIP9245     0.2052
 47097 H2          30.7410    30.8750   -53.5680 H      9395  TIP9245     0.2052
 47098 OH2          1.1510    -7.0400   -20.1810 O.3    9396  TIP9246    -0.4105
 47099 H1           0.8120    -6.9660   -19.2890 H      9396  TIP9246     0.2052
 47100 H2           1.5000    -7.9290   -20.2330 H      9396  TIP9246     0.2052
 47101 OH2        -23.3310   -21.1580   -49.6690 O.3    9397  TIP9247    -0.4105
 47102 H1         -22.6330   -20.8390   -49.0960 H      9397  TIP9247     0.2052
 47103 H2         -23.5120   -20.4250   -50.2560 H      9397  TIP9247     0.2052
 47104 OH2          1.4800   -26.6220   -22.7320 O.3    9398  TIP9248    -0.4105
 47105 H1           1.6860   -27.0410   -21.8970 H      9398  TIP9248     0.2052
 47106 H2           0.7640   -27.1440   -23.0930 H      9398  TIP9248     0.2052
 47107 OH2        -18.7270    22.8250   -38.4300 O.3    9399  TIP9249    -0.4105
 47108 H1         -19.3600    23.5370   -38.3320 H      9399  TIP9249     0.2052
 47109 H2         -18.6700    22.6820   -39.3750 H      9399  TIP9249     0.2052
 47110 OH2         -2.0460   -31.5950   -41.1230 O.3    9400  TIP9250    -0.4105
 47111 H1          -1.7760   -31.5870   -42.0420 H      9400  TIP9250     0.2052
 47112 H2          -2.9160   -31.9950   -41.1320 H      9400  TIP9250     0.2052
 47113 OH2         26.1980     3.2380   -35.7850 O.3    9401  TIP9251    -0.4105
 47114 H1          25.9220     3.4960   -34.9050 H      9401  TIP9251     0.2052
 47115 H2          25.6340     3.7430   -36.3710 H      9401  TIP9251     0.2052
 47116 OH2         18.0840    16.5480   -44.2560 O.3    9402  TIP9252    -0.4105
 47117 H1          17.9570    15.8800   -44.9300 H      9402  TIP9252     0.2052
 47118 H2          18.9290    16.9450   -44.4680 H      9402  TIP9252     0.2052
 47119 OH2          6.2970    13.4300    50.6120 O.3    9403  TIP9253    -0.4105
 47120 H1           5.4810    13.3230    51.1020 H      9403  TIP9253     0.2052
 47121 H2           6.4000    14.3780    50.5230 H      9403  TIP9253     0.2052
 47122 OH2        -28.3930     7.2510    44.5970 O.3    9404  TIP9254    -0.4105
 47123 H1         -27.9130     6.4260    44.6710 H      9404  TIP9254     0.2052
 47124 H2         -27.8470     7.7950    44.0280 H      9404  TIP9254     0.2052
 47125 OH2         27.3460   -25.9280   -26.5680 O.3    9405  TIP9255    -0.4105
 47126 H1          26.8220   -26.1420   -27.3400 H      9405  TIP9255     0.2052
 47127 H2          26.8340   -26.2600   -25.8300 H      9405  TIP9255     0.2052
 47128 OH2         20.0360    25.2640    26.1580 O.3    9406  TIP9256    -0.4105
 47129 H1          20.2160    24.4870    25.6290 H      9406  TIP9256     0.2052
 47130 H2          19.1620    25.1130    26.5170 H      9406  TIP9256     0.2052
 47131 OH2         31.4570    16.3180    31.8840 O.3    9407  TIP9257    -0.4105
 47132 H1          32.0360    16.6450    32.5720 H      9407  TIP9257     0.2052
 47133 H2          31.9550    16.4380    31.0750 H      9407  TIP9257     0.2052
 47134 OH2         21.5550   -32.4230    32.7590 O.3    9408  TIP9258    -0.4105
 47135 H1          22.1520   -32.9050    32.1870 H      9408  TIP9258     0.2052
 47136 H2          21.1970   -33.0880    33.3470 H      9408  TIP9258     0.2052
 47137 OH2        -32.2240   -16.4220    42.3210 O.3    9409  TIP9259    -0.4105
 47138 H1         -32.6860   -17.2440    42.4870 H      9409  TIP9259     0.2052
 47139 H2         -32.6390   -16.0690    41.5330 H      9409  TIP9259     0.2052
 47140 OH2          8.3400    -2.2060    35.3780 O.3    9410  TIP9260    -0.4105
 47141 H1           9.1720    -1.8310    35.0910 H      9410  TIP9260     0.2052
 47142 H2           8.5400    -2.6200    36.2180 H      9410  TIP9260     0.2052
 47143 OH2         22.4970    20.1150    30.0520 O.3    9411  TIP9261    -0.4105
 47144 H1          22.8250    20.8410    29.5220 H      9411  TIP9261     0.2052
 47145 H2          22.4130    19.3870    29.4370 H      9411  TIP9261     0.2052
 47146 OH2        -28.0070    31.8600    51.3800 O.3    9412  TIP9262    -0.4105
 47147 H1         -28.1860    31.1710    50.7400 H      9412  TIP9262     0.2052
 47148 H2         -28.8310    31.9660    51.8550 H      9412  TIP9262     0.2052
 47149 OH2         -7.6900   -20.9600   -55.4430 O.3    9413  TIP9263    -0.4105
 47150 H1          -6.9490   -21.5400   -55.2670 H      9413  TIP9263     0.2052
 47151 H2          -8.4510   -21.5400   -55.4560 H      9413  TIP9263     0.2052
 47152 OH2        -18.3650    -7.8410    42.3240 O.3    9414  TIP9264    -0.4105
 47153 H1         -17.6000    -8.1060    41.8150 H      9414  TIP9264     0.2052
 47154 H2         -19.0900    -7.8650    41.6990 H      9414  TIP9264     0.2052
 47155 OH2         -1.6200   -10.9030    48.3400 O.3    9415  TIP9265    -0.4105
 47156 H1          -1.1660   -11.0210    49.1740 H      9415  TIP9265     0.2052
 47157 H2          -0.9650   -11.1220    47.6770 H      9415  TIP9265     0.2052
 47158 OH2         20.8160   -18.1370   -27.7650 O.3    9416  TIP9266    -0.4105
 47159 H1          20.2800   -17.7510   -27.0720 H      9416  TIP9266     0.2052
 47160 H2          21.2450   -18.8840   -27.3480 H      9416  TIP9266     0.2052
 47161 OH2         12.5240   -15.6850   -39.0070 O.3    9417  TIP9267    -0.4105
 47162 H1          12.4950   -16.4660   -39.5590 H      9417  TIP9267     0.2052
 47163 H2          11.6170   -15.5500   -38.7330 H      9417  TIP9267     0.2052
 47164 OH2         22.0990     8.4350    28.0760 O.3    9418  TIP9268    -0.4105
 47165 H1          22.3990     8.7420    28.9320 H      9418  TIP9268     0.2052
 47166 H2          22.5960     7.6320    27.9210 H      9418  TIP9268     0.2052
 47167 OH2         18.4230   -10.7070   -23.5070 O.3    9419  TIP9269    -0.4105
 47168 H1          18.9020   -11.3090   -24.0760 H      9419  TIP9269     0.2052
 47169 H2          19.0310    -9.9830   -23.3570 H      9419  TIP9269     0.2052
 47170 OH2         13.1750    13.6050   -45.2640 O.3    9420  TIP9270    -0.4105
 47171 H1          12.8090    13.8340   -44.4100 H      9420  TIP9270     0.2052
 47172 H2          12.5590    12.9680   -45.6270 H      9420  TIP9270     0.2052
 47173 OH2         -0.9520    25.5060   -34.2390 O.3    9421  TIP9271    -0.4105
 47174 H1          -1.6370    25.3600   -33.5850 H      9421  TIP9271     0.2052
 47175 H2          -0.3590    26.1350   -33.8280 H      9421  TIP9271     0.2052
 47176 OH2        -11.3130    11.6750    46.5930 O.3    9422  TIP9272    -0.4105
 47177 H1         -10.6900    11.0590    46.9780 H      9422  TIP9272     0.2052
 47178 H2         -11.7200    11.1880    45.8760 H      9422  TIP9272     0.2052
 47179 OH2         30.3000   -30.0680    54.9120 O.3    9423  TIP9273    -0.4105
 47180 H1          30.2990   -29.9510    55.8620 H      9423  TIP9273     0.2052
 47181 H2          31.1990   -30.3190    54.7020 H      9423  TIP9273     0.2052
 47182 OH2         -6.2500   -15.4930   -29.2910 O.3    9424  TIP9274    -0.4105
 47183 H1          -6.2770   -14.5970   -28.9520 H      9424  TIP9274     0.2052
 47184 H2          -7.0010   -15.9250   -28.8850 H      9424  TIP9274     0.2052
 47185 OH2          4.5990    -2.9650   -11.5280 O.3    9425  TIP9275    -0.4105
 47186 H1           4.0180    -2.4570   -10.9630 H      9425  TIP9275     0.2052
 47187 H2           5.4800    -2.7490   -11.2230 H      9425  TIP9275     0.2052
 47188 OH2        -10.7790   -22.6510    33.1260 O.3    9426  TIP9276    -0.4105
 47189 H1          -9.8750   -22.6230    32.8120 H      9426  TIP9276     0.2052
 47190 H2         -11.2970   -22.3040    32.3990 H      9426  TIP9276     0.2052
 47191 OH2         19.6750    26.3430   -40.3120 O.3    9427  TIP9277    -0.4105
 47192 H1          20.3370    26.3480   -41.0030 H      9427  TIP9277     0.2052
 47193 H2          20.0790    26.8210   -39.5880 H      9427  TIP9277     0.2052
 47194 OH2         10.5360   -14.9000   -18.3760 O.3    9428  TIP9278    -0.4105
 47195 H1           9.8300   -15.3410   -17.9020 H      9428  TIP9278     0.2052
 47196 H2          10.3700   -13.9670   -18.2410 H      9428  TIP9278     0.2052
 47197 OH2         27.6230    -7.4710    48.3830 O.3    9429  TIP9279    -0.4105
 47198 H1          27.2290    -8.2760    48.7160 H      9429  TIP9279     0.2052
 47199 H2          27.9600    -7.7080    47.5190 H      9429  TIP9279     0.2052
 47200 OH2        -10.7580    -4.7350   -55.3260 O.3    9430  TIP9280    -0.4105
 47201 H1         -10.3930    -5.4170   -54.7620 H      9430  TIP9280     0.2052
 47202 H2         -10.6350    -5.0670   -56.2150 H      9430  TIP9280     0.2052
 47203 OH2         15.5160    -2.0660    42.7380 O.3    9431  TIP9281    -0.4105
 47204 H1          15.4650    -2.9670    42.4200 H      9431  TIP9281     0.2052
 47205 H2          15.6950    -1.5440    41.9560 H      9431  TIP9281     0.2052
 47206 OH2        -13.5990    23.1810    50.2030 O.3    9432  TIP9282    -0.4105
 47207 H1         -13.8100    22.5120    49.5520 H      9432  TIP9282     0.2052
 47208 H2         -13.9940    22.8600    51.0140 H      9432  TIP9282     0.2052
 47209 OH2         -2.5930    -8.5020   -37.9480 O.3    9433  TIP9283    -0.4105
 47210 H1          -3.3990    -8.5450   -37.4330 H      9433  TIP9283     0.2052
 47211 H2          -2.8920    -8.4170   -38.8540 H      9433  TIP9283     0.2052
 47212 OH2         -9.7310   -26.2170    53.7090 O.3    9434  TIP9284    -0.4105
 47213 H1         -10.0080   -27.0390    54.1130 H      9434  TIP9284     0.2052
 47214 H2          -9.0870   -26.4780    53.0500 H      9434  TIP9284     0.2052
 47215 OH2        -29.0000   -24.1740   -40.0910 O.3    9435  TIP9285    -0.4105
 47216 H1         -29.5810   -23.7910   -39.4340 H      9435  TIP9285     0.2052
 47217 H2         -28.1810   -23.6870   -40.0000 H      9435  TIP9285     0.2052
 47218 OH2        -13.7170    14.7720    38.7740 O.3    9436  TIP9286    -0.4105
 47219 H1         -13.2610    14.6840    37.9370 H      9436  TIP9286     0.2052
 47220 H2         -13.1680    14.2980    39.3980 H      9436  TIP9286     0.2052
 47221 OH2         10.1350    -8.2180   -31.8320 O.3    9437  TIP9287    -0.4105
 47222 H1           9.3290    -7.7420   -32.0330 H      9437  TIP9287     0.2052
 47223 H2          10.6720    -8.1220   -32.6190 H      9437  TIP9287     0.2052
 47224 OH2        -25.6890   -28.9290   -30.5470 O.3    9438  TIP9288    -0.4105
 47225 H1         -24.9220   -28.3760   -30.3970 H      9438  TIP9288     0.2052
 47226 H2         -26.1920   -28.8680   -29.7360 H      9438  TIP9288     0.2052
 47227 OH2        -29.7680   -16.9270    39.8520 O.3    9439  TIP9289    -0.4105
 47228 H1         -28.8810   -16.5830    39.9560 H      9439  TIP9289     0.2052
 47229 H2         -29.7190   -17.8220    40.1890 H      9439  TIP9289     0.2052
 47230 OH2        -22.1880   -12.4210    35.4010 O.3    9440  TIP9290    -0.4105
 47231 H1         -21.2670   -12.5770    35.6100 H      9440  TIP9290     0.2052
 47232 H2         -22.3400   -12.9240    34.6000 H      9440  TIP9290     0.2052
 47233 OH2        -26.5720    28.1300    30.9540 O.3    9441  TIP9291    -0.4105
 47234 H1         -26.9850    27.5940    30.2770 H      9441  TIP9291     0.2052
 47235 H2         -27.0860    27.9560    31.7430 H      9441  TIP9291     0.2052
 47236 OH2         31.7860   -10.3240   -26.8300 O.3    9442  TIP9292    -0.4105
 47237 H1          31.7170    -9.4030   -27.0820 H      9442  TIP9292     0.2052
 47238 H2          30.9120   -10.6810   -26.9870 H      9442  TIP9292     0.2052
 47239 OH2          6.9820    13.3430   -34.5000 O.3    9443  TIP9293    -0.4105
 47240 H1           6.9130    14.1250   -35.0470 H      9443  TIP9293     0.2052
 47241 H2           6.0880    13.0070   -34.4470 H      9443  TIP9293     0.2052
 47242 OH2         -9.6500    21.2690   -28.1970 O.3    9444  TIP9294    -0.4105
 47243 H1         -10.5580    21.2810   -27.8930 H      9444  TIP9294     0.2052
 47244 H2          -9.2640    20.5040   -27.7700 H      9444  TIP9294     0.2052
 47245 OH2          7.9470    18.2170   -29.3340 O.3    9445  TIP9295    -0.4105
 47246 H1           7.6140    18.0780   -30.2210 H      9445  TIP9295     0.2052
 47247 H2           7.1620    18.2970   -28.7920 H      9445  TIP9295     0.2052
 47248 OH2         28.1800   -25.1510    48.9500 O.3    9446  TIP9296    -0.4105
 47249 H1          27.7570   -25.6210    48.2310 H      9446  TIP9296     0.2052
 47250 H2          27.9420   -25.6480    49.7340 H      9446  TIP9296     0.2052
 47251 OH2          5.5820    22.3880   -25.7010 O.3    9447  TIP9297    -0.4105
 47252 H1           5.9060    21.7180   -26.3030 H      9447  TIP9297     0.2052
 47253 H2           5.3260    21.9020   -24.9170 H      9447  TIP9297     0.2052
 47254 OH2        -29.6890    -2.6290   -16.4510 O.3    9448  TIP9298    -0.4105
 47255 H1         -29.0180    -2.1350   -15.9800 H      9448  TIP9298     0.2052
 47256 H2         -29.6180    -2.3270   -17.3570 H      9448  TIP9298     0.2052
 47257 OH2          6.5540   -12.1720   -49.4510 O.3    9449  TIP9299    -0.4105
 47258 H1           7.1340   -12.6110   -48.8280 H      9449  TIP9299     0.2052
 47259 H2           5.8570   -11.8010   -48.9090 H      9449  TIP9299     0.2052
 47260 OH2          9.1920   -28.2110   -34.6500 O.3    9450  TIP9300    -0.4105
 47261 H1           9.8290   -28.7750   -35.0880 H      9450  TIP9300     0.2052
 47262 H2           9.2440   -27.3800   -35.1220 H      9450  TIP9300     0.2052
 47263 OH2        -24.1600   -32.8620   -29.4020 O.3    9451  TIP9301    -0.4105
 47264 H1         -24.1330   -31.9100   -29.4940 H      9451  TIP9301     0.2052
 47265 H2         -23.3180   -33.1600   -29.7450 H      9451  TIP9301     0.2052
 47266 OH2         11.4860   -31.5500   -37.7400 O.3    9452  TIP9302    -0.4105
 47267 H1          12.0840   -31.9580   -37.1130 H      9452  TIP9302     0.2052
 47268 H2          11.8160   -30.6570   -37.8390 H      9452  TIP9302     0.2052
 47269 OH2         11.3130     0.0500   -14.6450 O.3    9453  TIP9303    -0.4105
 47270 H1          10.9000     0.6480   -15.2690 H      9453  TIP9303     0.2052
 47271 H2          11.9620     0.5880   -14.1910 H      9453  TIP9303     0.2052
 47272 OH2         -1.6900    17.5010    18.9530 O.3    9454  TIP9304    -0.4105
 47273 H1          -1.6570    16.7410    18.3740 H      9454  TIP9304     0.2052
 47274 H2          -1.5540    17.1410    19.8300 H      9454  TIP9304     0.2052
 47275 OH2         28.0810    11.6940    48.6770 O.3    9455  TIP9305    -0.4105
 47276 H1          28.1290    10.8050    49.0280 H      9455  TIP9305     0.2052
 47277 H2          27.1600    11.8100    48.4430 H      9455  TIP9305     0.2052
 47278 OH2        -32.2450    15.6150    50.5990 O.3    9456  TIP9306    -0.4105
 47279 H1         -32.6940    14.7750    50.6980 H      9456  TIP9306     0.2052
 47280 H2         -32.7950    16.2390    51.0720 H      9456  TIP9306     0.2052
 47281 OH2          7.0600    19.7760   -43.0440 O.3    9457  TIP9307    -0.4105
 47282 H1           6.2950    19.2910   -42.7340 H      9457  TIP9307     0.2052
 47283 H2           7.8060    19.2250   -42.8060 H      9457  TIP9307     0.2052
 47284 OH2         -1.8690    31.6230    40.1100 O.3    9458  TIP9308    -0.4105
 47285 H1          -2.4610    30.9240    40.3870 H      9458  TIP9308     0.2052
 47286 H2          -2.3470    32.4310    40.3010 H      9458  TIP9308     0.2052
 47287 OH2         14.8630   -32.7330    25.8000 O.3    9459  TIP9309    -0.4105
 47288 H1          15.0050   -31.8730    26.1950 H      9459  TIP9309     0.2052
 47289 H2          15.7080   -33.1750    25.8760 H      9459  TIP9309     0.2052
 47290 OH2         30.5990   -18.4780   -48.5850 O.3    9460  TIP9310    -0.4105
 47291 H1          29.7410   -18.3210   -48.9800 H      9460  TIP9310     0.2052
 47292 H2          31.1870   -17.8760   -49.0420 H      9460  TIP9310     0.2052
 47293 OH2          0.7860   -28.0430    51.1770 O.3    9461  TIP9311    -0.4105
 47294 H1           0.6300   -27.8340    52.0970 H      9461  TIP9311     0.2052
 47295 H2          -0.0880   -28.1190    50.7950 H      9461  TIP9311     0.2052
 47296 OH2         21.7870   -16.0180   -29.2070 O.3    9462  TIP9312    -0.4105
 47297 H1          21.6350   -16.0450   -30.1510 H      9462  TIP9312     0.2052
 47298 H2          21.1990   -16.6830   -28.8500 H      9462  TIP9312     0.2052
 47299 OH2        -12.9450   -19.0970   -43.1470 O.3    9463  TIP9313    -0.4105
 47300 H1         -13.0420   -18.3320   -42.5810 H      9463  TIP9313     0.2052
 47301 H2         -12.0070   -19.1450   -43.3280 H      9463  TIP9313     0.2052
 47302 OH2         12.0580    -7.7060    41.0390 O.3    9464  TIP9314    -0.4105
 47303 H1          11.9560    -7.4960    41.9670 H      9464  TIP9314     0.2052
 47304 H2          11.1630    -7.8290    40.7210 H      9464  TIP9314     0.2052
 47305 OH2         23.7040     2.4320    33.3860 O.3    9465  TIP9315    -0.4105
 47306 H1          24.5680     2.1020    33.6330 H      9465  TIP9315     0.2052
 47307 H2          23.1960     2.4050    34.1960 H      9465  TIP9315     0.2052
 47308 OH2         -9.4720   -25.0450    31.0900 O.3    9466  TIP9316    -0.4105
 47309 H1         -10.3970   -25.0570    31.3350 H      9466  TIP9316     0.2052
 47310 H2          -9.1040   -24.3090    31.5790 H      9466  TIP9316     0.2052
 47311 OH2         -3.1010    24.3210    31.7430 O.3    9467  TIP9317    -0.4105
 47312 H1          -2.7480    24.2200    30.8590 H      9467  TIP9317     0.2052
 47313 H2          -3.7270    25.0420    31.6700 H      9467  TIP9317     0.2052
 47314 OH2         19.3470   -29.8790    27.5770 O.3    9468  TIP9318    -0.4105
 47315 H1          19.9170   -30.5080    27.1350 H      9468  TIP9318     0.2052
 47316 H2          19.5510   -29.9810    28.5060 H      9468  TIP9318     0.2052
 47317 OH2        -23.7260   -20.6610   -32.4200 O.3    9469  TIP9319    -0.4105
 47318 H1         -23.2390   -20.2920   -31.6830 H      9469  TIP9319     0.2052
 47319 H2         -24.1030   -21.4710   -32.0760 H      9469  TIP9319     0.2052
 47320 OH2          7.8050     5.8010   -53.7510 O.3    9470  TIP9320    -0.4105
 47321 H1           7.6440     6.7130   -53.5100 H      9470  TIP9320     0.2052
 47322 H2           6.9670     5.4940   -54.0990 H      9470  TIP9320     0.2052
 47323 OH2        -23.7970    29.7940    44.1870 O.3    9471  TIP9321    -0.4105
 47324 H1         -23.2720    30.5790    44.0370 H      9471  TIP9321     0.2052
 47325 H2         -23.2670    29.0790    43.8350 H      9471  TIP9321     0.2052
 47326 OH2         19.8010    -0.7000    39.8110 O.3    9472  TIP9322    -0.4105
 47327 H1          18.9830    -0.9020    40.2640 H      9472  TIP9322     0.2052
 47328 H2          20.1400    -1.5520    39.5360 H      9472  TIP9322     0.2052
 47329 OH2        -18.3570     8.7160    47.0420 O.3    9473  TIP9323    -0.4105
 47330 H1         -18.6090     8.6400    47.9630 H      9473  TIP9323     0.2052
 47331 H2         -17.4000     8.7020    47.0530 H      9473  TIP9323     0.2052
 47332 OH2         12.7070     9.6700    25.4530 O.3    9474  TIP9324    -0.4105
 47333 H1          12.3820    10.3100    24.8200 H      9474  TIP9324     0.2052
 47334 H2          11.9290     9.3950    25.9380 H      9474  TIP9324     0.2052
 47335 OH2         -3.9020    -0.5960   -16.8930 O.3    9475  TIP9325    -0.4105
 47336 H1          -4.3920    -1.3600   -16.5880 H      9475  TIP9325     0.2052
 47337 H2          -3.0910    -0.9590   -17.2510 H      9475  TIP9325     0.2052
 47338 OH2         22.4910    -3.4450    50.2320 O.3    9476  TIP9326    -0.4105
 47339 H1          22.0190    -4.2740    50.1470 H      9476  TIP9326     0.2052
 47340 H2          22.3630    -3.1890    51.1450 H      9476  TIP9326     0.2052
 47341 OH2          9.0020    22.2980    27.3850 O.3    9477  TIP9327    -0.4105
 47342 H1           9.6640    22.8340    27.8220 H      9477  TIP9327     0.2052
 47343 H2           8.2470    22.8780    27.2910 H      9477  TIP9327     0.2052
 47344 OH2        -32.2210     7.9240   -38.7580 O.3    9478  TIP9328    -0.4105
 47345 H1         -32.9810     8.3120   -38.3230 H      9478  TIP9328     0.2052
 47346 H2         -31.7920     8.6610   -39.1920 H      9478  TIP9328     0.2052
 47347 OH2        -10.0970    28.8260    28.9240 O.3    9479  TIP9329    -0.4105
 47348 H1          -9.3030    28.7120    29.4460 H      9479  TIP9329     0.2052
 47349 H2          -9.7800    29.0530    28.0500 H      9479  TIP9329     0.2052
 47350 OH2         19.7590    -0.4060   -48.9820 O.3    9480  TIP9330    -0.4105
 47351 H1          20.0990    -0.7690   -48.1640 H      9480  TIP9330     0.2052
 47352 H2          18.8830    -0.7820   -49.0650 H      9480  TIP9330     0.2052
 47353 OH2        -19.9080     5.3900   -48.4790 O.3    9481  TIP9331    -0.4105
 47354 H1         -20.3010     5.5110   -47.6150 H      9481  TIP9331     0.2052
 47355 H2         -18.9660     5.3600   -48.3120 H      9481  TIP9331     0.2052
 47356 OH2         22.4270     3.0960    41.0050 O.3    9482  TIP9332    -0.4105
 47357 H1          21.4880     3.1030    40.8170 H      9482  TIP9332     0.2052
 47358 H2          22.6750     2.1730    40.9550 H      9482  TIP9332     0.2052
 47359 OH2         -0.2800   -14.9900   -29.3940 O.3    9483  TIP9333    -0.4105
 47360 H1          -0.9150   -14.2740   -29.3690 H      9483  TIP9333     0.2052
 47361 H2          -0.7760   -15.7400   -29.7220 H      9483  TIP9333     0.2052
 47362 OH2         -4.4150    -4.6080   -21.1980 O.3    9484  TIP9334    -0.4105
 47363 H1          -4.3220    -3.6820   -21.4230 H      9484  TIP9334     0.2052
 47364 H2          -3.5420    -4.8750   -20.9120 H      9484  TIP9334     0.2052
 47365 OH2         -9.5670   -21.4330   -27.6680 O.3    9485  TIP9335    -0.4105
 47366 H1         -10.4220   -21.0030   -27.6860 H      9485  TIP9335     0.2052
 47367 H2          -9.2990   -21.4730   -28.5860 H      9485  TIP9335     0.2052
 47368 OH2         18.9880   -12.2200   -49.8420 O.3    9486  TIP9336    -0.4105
 47369 H1          18.9090   -11.4060   -49.3440 H      9486  TIP9336     0.2052
 47370 H2          18.5800   -12.8830   -49.2840 H      9486  TIP9336     0.2052
 47371 OH2          9.2420    11.9720    49.6930 O.3    9487  TIP9337    -0.4105
 47372 H1           9.3590    12.8820    49.4210 H      9487  TIP9337     0.2052
 47373 H2           8.3100    11.8990    49.8960 H      9487  TIP9337     0.2052
 47374 OH2         11.2540    -2.2470    48.2710 O.3    9488  TIP9338    -0.4105
 47375 H1          10.8520    -2.4030    47.4160 H      9488  TIP9338     0.2052
 47376 H2          10.5140    -2.1760    48.8740 H      9488  TIP9338     0.2052
 47377 OH2         -4.6480    -1.4820    49.3660 O.3    9489  TIP9339    -0.4105
 47378 H1          -4.3840    -1.4950    48.4460 H      9489  TIP9339     0.2052
 47379 H2          -5.5880    -1.3030    49.3440 H      9489  TIP9339     0.2052
 47380 OH2         -8.9540   -25.6240   -41.4300 O.3    9490  TIP9340    -0.4105
 47381 H1          -8.7640   -24.7360   -41.1260 H      9490  TIP9340     0.2052
 47382 H2          -8.6650   -25.6330   -42.3420 H      9490  TIP9340     0.2052
 47383 OH2         16.3980    10.6330    28.7140 O.3    9491  TIP9341    -0.4105
 47384 H1          16.6790    10.5140    27.8070 H      9491  TIP9341     0.2052
 47385 H2          17.0520    10.1620    29.2310 H      9491  TIP9341     0.2052
 47386 OH2        -19.2590    18.3000    42.6370 O.3    9492  TIP9342    -0.4105
 47387 H1         -20.1240    18.1950    43.0310 H      9492  TIP9342     0.2052
 47388 H2         -19.3980    18.9070    41.9100 H      9492  TIP9342     0.2052
 47389 OH2         21.5680     7.5560    45.8560 O.3    9493  TIP9343    -0.4105
 47390 H1          21.6200     8.1790    46.5800 H      9493  TIP9343     0.2052
 47391 H2          20.6570     7.2600    45.8600 H      9493  TIP9343     0.2052
 47392 OH2          5.2830    21.3150    35.5280 O.3    9494  TIP9344    -0.4105
 47393 H1           5.1720    22.2610    35.4330 H      9494  TIP9344     0.2052
 47394 H2           5.0450    21.1350    36.4380 H      9494  TIP9344     0.2052
 47395 OH2         11.0260    -4.7230   -26.7140 O.3    9495  TIP9345    -0.4105
 47396 H1          11.5660    -5.5080   -26.8070 H      9495  TIP9345     0.2052
 47397 H2          11.6550    -4.0030   -26.6640 H      9495  TIP9345     0.2052
 47398 OH2         -2.4330    14.0150   -36.1330 O.3    9496  TIP9346    -0.4105
 47399 H1          -2.9650    13.5650   -36.7890 H      9496  TIP9346     0.2052
 47400 H2          -2.9690    14.7610   -35.8610 H      9496  TIP9346     0.2052
 47401 OH2         13.0820    -4.4100   -53.2250 O.3    9497  TIP9347    -0.4105
 47402 H1          13.4270    -5.2520   -53.5190 H      9497  TIP9347     0.2052
 47403 H2          13.8540    -3.9170   -52.9470 H      9497  TIP9347     0.2052
 47404 OH2        -24.0360    -5.0900    49.7670 O.3    9498  TIP9348    -0.4105
 47405 H1         -24.6260    -4.7150    50.4210 H      9498  TIP9348     0.2052
 47406 H2         -23.2130    -5.2260    50.2360 H      9498  TIP9348     0.2052
 47407 OH2        -14.6310    29.0990    44.3340 O.3    9499  TIP9349    -0.4105
 47408 H1         -13.8140    29.5230    44.6000 H      9499  TIP9349     0.2052
 47409 H2         -15.0890    28.9240    45.1560 H      9499  TIP9349     0.2052
 47410 OH2        -11.8990     9.7370   -40.9840 O.3    9500  TIP9350    -0.4105
 47411 H1         -12.4700     9.2340   -40.4040 H      9500  TIP9350     0.2052
 47412 H2         -11.2040     9.1250   -41.2250 H      9500  TIP9350     0.2052
 47413 OH2         23.4040    30.0650    20.6050 O.3    9501  TIP9351    -0.4105
 47414 H1          22.7320    29.3840    20.6400 H      9501  TIP9351     0.2052
 47415 H2          22.9440    30.8680    20.8510 H      9501  TIP9351     0.2052
 47416 OH2        -15.2510   -28.5760    34.2870 O.3    9502  TIP9352    -0.4105
 47417 H1         -14.8300   -27.9480    33.6990 H      9502  TIP9352     0.2052
 47418 H2         -15.9710   -28.9400    33.7720 H      9502  TIP9352     0.2052
 47419 OH2         26.1110   -21.0030    19.9820 O.3    9503  TIP9353    -0.4105
 47420 H1          25.3090   -21.3560    19.5970 H      9503  TIP9353     0.2052
 47421 H2          26.0440   -20.0570    19.8500 H      9503  TIP9353     0.2052
 47422 OH2        -10.1230   -20.3370    45.2360 O.3    9504  TIP9354    -0.4105
 47423 H1         -11.0720   -20.3470    45.3640 H      9504  TIP9354     0.2052
 47424 H2          -9.8550   -21.2470    45.3590 H      9504  TIP9354     0.2052
 47425 OH2         -0.2020    -9.9600   -49.1630 O.3    9505  TIP9355    -0.4105
 47426 H1           0.2820    -9.6360   -49.9220 H      9505  TIP9355     0.2052
 47427 H2          -0.6650    -9.1920   -48.8280 H      9505  TIP9355     0.2052
 47428 OH2         -5.6680    31.8400    53.0460 O.3    9506  TIP9356    -0.4105
 47429 H1          -4.9130    31.4230    52.6290 H      9506  TIP9356     0.2052
 47430 H2          -5.3980    31.9700    53.9550 H      9506  TIP9356     0.2052
 47431 OH2         -1.6490     5.6250   -26.1610 O.3    9507  TIP9357    -0.4105
 47432 H1          -1.2440     5.4640   -25.3090 H      9507  TIP9357     0.2052
 47433 H2          -2.0820     6.4730   -26.0640 H      9507  TIP9357     0.2052
 47434 OH2         23.2560    20.3230   -39.1020 O.3    9508  TIP9358    -0.4105
 47435 H1          22.5110    20.2020   -38.5140 H      9508  TIP9358     0.2052
 47436 H2          22.9500    20.9610   -39.7470 H      9508  TIP9358     0.2052
 47437 OH2         18.5800   -30.0100   -35.2070 O.3    9509  TIP9359    -0.4105
 47438 H1          18.5610   -29.0850   -34.9610 H      9509  TIP9359     0.2052
 47439 H2          19.1520   -30.0430   -35.9730 H      9509  TIP9359     0.2052
 47440 OH2         30.3570   -25.2650   -50.8490 O.3    9510  TIP9360    -0.4105
 47441 H1          31.1080   -24.6730   -50.8800 H      9510  TIP9360     0.2052
 47442 H2          29.5990   -24.6990   -50.9920 H      9510  TIP9360     0.2052
 47443 OH2         -7.4140    -3.6140   -24.2450 O.3    9511  TIP9361    -0.4105
 47444 H1          -6.6810    -3.0560   -24.5020 H      9511  TIP9361     0.2052
 47445 H2          -8.0050    -3.0310   -23.7690 H      9511  TIP9361     0.2052
 47446 OH2         22.0450    13.6490   -44.0570 O.3    9512  TIP9362    -0.4105
 47447 H1          21.8960    14.4600   -44.5440 H      9512  TIP9362     0.2052
 47448 H2          21.1690    13.3470   -43.8190 H      9512  TIP9362     0.2052
 47449 OH2          3.1550    -7.7100    25.3560 O.3    9513  TIP9363    -0.4105
 47450 H1           2.3220    -7.4430    25.7460 H      9513  TIP9363     0.2052
 47451 H2           2.9090    -8.3120    24.6540 H      9513  TIP9363     0.2052
 47452 OH2          7.2650    22.8060   -38.8970 O.3    9514  TIP9364    -0.4105
 47453 H1           7.0460    22.3420   -38.0890 H      9514  TIP9364     0.2052
 47454 H2           6.5710    22.5630   -39.5090 H      9514  TIP9364     0.2052
 47455 OH2         13.2610    22.3250    46.8890 O.3    9515  TIP9365    -0.4105
 47456 H1          12.4810    22.6920    47.3050 H      9515  TIP9365     0.2052
 47457 H2          13.9140    22.2970    47.5880 H      9515  TIP9365     0.2052
 47458 OH2        -24.3110    12.4700    29.3010 O.3    9516  TIP9366    -0.4105
 47459 H1         -25.1350    12.9570    29.3040 H      9516  TIP9366     0.2052
 47460 H2         -24.3810    11.8740    30.0470 H      9516  TIP9366     0.2052
 47461 OH2        -13.7510   -13.5840   -30.7330 O.3    9517  TIP9367    -0.4105
 47462 H1         -14.6420   -13.2660   -30.8770 H      9517  TIP9367     0.2052
 47463 H2         -13.8600   -14.3790   -30.2110 H      9517  TIP9367     0.2052
 47464 OH2         -8.0300    -9.8880   -18.8720 O.3    9518  TIP9368    -0.4105
 47465 H1          -7.1590    -9.5780   -19.1220 H      9518  TIP9368     0.2052
 47466 H2          -8.1680   -10.6720   -19.4040 H      9518  TIP9368     0.2052
 47467 OH2         22.7010   -17.6610    42.1960 O.3    9519  TIP9369    -0.4105
 47468 H1          22.7010   -17.9860    43.0960 H      9519  TIP9369     0.2052
 47469 H2          23.5930   -17.3440    42.0550 H      9519  TIP9369     0.2052
 47470 OH2        -17.9010    23.1910    27.9070 O.3    9520  TIP9370    -0.4105
 47471 H1         -17.6400    24.1040    27.7810 H      9520  TIP9370     0.2052
 47472 H2         -17.0830    22.7330    28.1010 H      9520  TIP9370     0.2052
 47473 OH2          8.8770   -28.1920   -24.4070 O.3    9521  TIP9371    -0.4105
 47474 H1           9.0220   -27.6220   -23.6520 H      9521  TIP9371     0.2052
 47475 H2           7.9590   -28.0510   -24.6410 H      9521  TIP9371     0.2052
 47476 OH2         -7.0660    28.8490    33.2820 O.3    9522  TIP9372    -0.4105
 47477 H1          -7.7530    28.7840    33.9450 H      9522  TIP9372     0.2052
 47478 H2          -7.0440    29.7770    33.0490 H      9522  TIP9372     0.2052
 47479 OH2         21.0540    23.7010    48.3480 O.3    9523  TIP9373    -0.4105
 47480 H1          21.3980    24.4550    48.8270 H      9523  TIP9373     0.2052
 47481 H2          21.8250    23.1670    48.1560 H      9523  TIP9373     0.2052
 47482 OH2         10.7560   -14.4250    27.1590 O.3    9524  TIP9374    -0.4105
 47483 H1          11.6020   -14.0000    27.0180 H      9524  TIP9374     0.2052
 47484 H2          10.8870   -15.3250    26.8610 H      9524  TIP9374     0.2052
 47485 OH2         27.1740   -19.7680   -47.5160 O.3    9525  TIP9375    -0.4105
 47486 H1          27.6670   -20.0250   -48.2940 H      9525  TIP9375     0.2052
 47487 H2          26.8600   -20.5930   -47.1470 H      9525  TIP9375     0.2052
 47488 OH2         17.2950    28.7490    40.0040 O.3    9526  TIP9376    -0.4105
 47489 H1          17.9780    28.5610    40.6480 H      9526  TIP9376     0.2052
 47490 H2          16.5050    28.3490    40.3680 H      9526  TIP9376     0.2052
 47491 OH2         31.0280   -12.5910    48.4030 O.3    9527  TIP9377    -0.4105
 47492 H1          31.0840   -13.5120    48.1460 H      9527  TIP9377     0.2052
 47493 H2          31.9230   -12.3550    48.6480 H      9527  TIP9377     0.2052
 47494 OH2         -7.0980   -19.2230   -25.8980 O.3    9528  TIP9378    -0.4105
 47495 H1          -7.8890   -19.3620   -25.3780 H      9528  TIP9378     0.2052
 47496 H2          -6.7530   -18.3840   -25.5900 H      9528  TIP9378     0.2052
 47497 OH2         10.3710    29.9250   -52.6070 O.3    9529  TIP9379    -0.4105
 47498 H1          11.2820    30.1430   -52.4090 H      9529  TIP9379     0.2052
 47499 H2           9.8580    30.5030   -52.0440 H      9529  TIP9379     0.2052
 47500 OH2         21.5190   -24.6560   -42.1010 O.3    9530  TIP9380    -0.4105
 47501 H1          21.4520   -25.1690   -41.2960 H      9530  TIP9380     0.2052
 47502 H2          20.9090   -25.0770   -42.7060 H      9530  TIP9380     0.2052
 47503 OH2          8.7520     2.2250   -43.2370 O.3    9531  TIP9381    -0.4105
 47504 H1           8.5920     1.8000   -42.3940 H      9531  TIP9381     0.2052
 47505 H2           8.0970     1.8480   -43.8240 H      9531  TIP9381     0.2052
 47506 OH2        -11.6850    -3.0380    37.6630 O.3    9532  TIP9382    -0.4105
 47507 H1         -11.9290    -3.2540    36.7640 H      9532  TIP9382     0.2052
 47508 H2         -11.9050    -3.8220    38.1670 H      9532  TIP9382     0.2052
 47509 OH2        -14.4200   -13.8640    26.1870 O.3    9533  TIP9383    -0.4105
 47510 H1         -15.3700   -13.8620    26.0690 H      9533  TIP9383     0.2052
 47511 H2         -14.2610   -13.2110    26.8680 H      9533  TIP9383     0.2052
 47512 OH2        -27.1690    25.1580    55.4660 O.3    9534  TIP9384    -0.4105
 47513 H1         -27.8510    25.6240    54.9810 H      9534  TIP9384     0.2052
 47514 H2         -26.3690    25.3110    54.9630 H      9534  TIP9384     0.2052
 47515 OH2         19.1390    26.9980    29.9590 O.3    9535  TIP9385    -0.4105
 47516 H1          18.8650    26.1830    30.3790 H      9535  TIP9385     0.2052
 47517 H2          18.4240    27.6100    30.1340 H      9535  TIP9385     0.2052
 47518 OH2         27.3800     8.2190   -34.9580 O.3    9536  TIP9386    -0.4105
 47519 H1          28.1440     8.7620   -35.1540 H      9536  TIP9386     0.2052
 47520 H2          27.7230     7.3250   -34.9310 H      9536  TIP9386     0.2052
 47521 OH2         -3.6040    12.0110    31.0810 O.3    9537  TIP9387    -0.4105
 47522 H1          -2.8520    11.5180    30.7510 H      9537  TIP9387     0.2052
 47523 H2          -3.2930    12.9150    31.1350 H      9537  TIP9387     0.2052
 47524 OH2          5.8610   -21.7560   -45.1200 O.3    9538  TIP9388    -0.4105
 47525 H1           5.6940   -22.4950   -44.5350 H      9538  TIP9388     0.2052
 47526 H2           5.0310   -21.2780   -45.1450 H      9538  TIP9388     0.2052
 47527 OH2         11.3070    -5.7680    -9.9010 O.3    9539  TIP9389    -0.4105
 47528 H1          10.3830    -5.5300    -9.9820 H      9539  TIP9389     0.2052
 47529 H2          11.7820    -4.9940   -10.2040 H      9539  TIP9389     0.2052
 47530 OH2        -26.3060     5.6970    46.7530 O.3    9540  TIP9390    -0.4105
 47531 H1         -26.3430     5.4950    45.8180 H      9540  TIP9390     0.2052
 47532 H2         -25.6760     5.0700    47.1080 H      9540  TIP9390     0.2052
 47533 OH2        -15.1150   -17.4030    42.1530 O.3    9541  TIP9391    -0.4105
 47534 H1         -14.5530   -18.1770    42.1770 H      9541  TIP9391     0.2052
 47535 H2         -15.1700   -17.1180    43.0650 H      9541  TIP9391     0.2052
 47536 OH2         15.0430    13.4640   -53.0200 O.3    9542  TIP9392    -0.4105
 47537 H1          15.7940    13.8890   -53.4350 H      9542  TIP9392     0.2052
 47538 H2          14.2860    13.9640   -53.3270 H      9542  TIP9392     0.2052
 47539 OH2         32.5350   -11.5320   -52.7160 O.3    9543  TIP9393    -0.4105
 47540 H1          33.4290   -11.3530   -53.0100 H      9543  TIP9393     0.2052
 47541 H2          32.6290   -11.7680   -51.7930 H      9543  TIP9393     0.2052
 47542 OH2        -30.7810    16.5490   -29.9280 O.3    9544  TIP9394    -0.4105
 47543 H1         -30.8820    16.9300   -30.8000 H      9544  TIP9394     0.2052
 47544 H2         -29.9020    16.8110   -29.6520 H      9544  TIP9394     0.2052
 47545 OH2         18.9010   -22.4790    34.2750 O.3    9545  TIP9395    -0.4105
 47546 H1          19.2430   -22.6400    33.3960 H      9545  TIP9395     0.2052
 47547 H2          19.6740   -22.2670    34.7990 H      9545  TIP9395     0.2052
 47548 OH2         -9.9510    14.1270    45.7780 O.3    9546  TIP9396    -0.4105
 47549 H1         -10.6210    14.7990    45.9040 H      9546  TIP9396     0.2052
 47550 H2         -10.1860    13.4360    46.3980 H      9546  TIP9396     0.2052
 47551 OH2         14.9240   -11.0010    27.2330 O.3    9547  TIP9397    -0.4105
 47552 H1          14.5380   -10.2240    27.6360 H      9547  TIP9397     0.2052
 47553 H2          14.8290   -11.6870    27.8940 H      9547  TIP9397     0.2052
 47554 OH2         22.0710    21.3520    38.5650 O.3    9548  TIP9398    -0.4105
 47555 H1          22.5280    21.4450    37.7290 H      9548  TIP9398     0.2052
 47556 H2          21.9990    20.4060    38.6940 H      9548  TIP9398     0.2052
 47557 OH2         -4.0400     9.5270   -44.1450 O.3    9549  TIP9399    -0.4105
 47558 H1          -3.5770    10.1610   -43.5970 H      9549  TIP9399     0.2052
 47559 H2          -3.6800     8.6790   -43.8870 H      9549  TIP9399     0.2052
 47560 OH2        -25.1950    -9.7390   -41.0070 O.3    9550  TIP9400    -0.4105
 47561 H1         -25.5090    -9.8950   -41.8980 H      9550  TIP9400     0.2052
 47562 H2         -25.7650    -9.0480   -40.6700 H      9550  TIP9400     0.2052
 47563 OH2         14.6180     6.5360    41.8930 O.3    9551  TIP9401    -0.4105
 47564 H1          14.1900     6.9910    42.6190 H      9551  TIP9401     0.2052
 47565 H2          15.1460     7.2110    41.4660 H      9551  TIP9401     0.2052
 47566 OH2         -0.8970    24.4210    41.1710 O.3    9552  TIP9402    -0.4105
 47567 H1          -0.2200    24.9480    41.5950 H      9552  TIP9402     0.2052
 47568 H2          -0.5050    23.5520    41.0860 H      9552  TIP9402     0.2052
 47569 OH2        -14.6010    21.2600    35.3150 O.3    9553  TIP9403    -0.4105
 47570 H1         -15.3730    21.5170    35.8190 H      9553  TIP9403     0.2052
 47571 H2         -13.8600    21.4880    35.8760 H      9553  TIP9403     0.2052
 47572 OH2         -6.5720    11.3040   -33.0460 O.3    9554  TIP9404    -0.4105
 47573 H1          -6.3740    12.2400   -33.0380 H      9554  TIP9404     0.2052
 47574 H2          -7.2460    11.1960   -32.3760 H      9554  TIP9404     0.2052
 47575 OH2        -32.6070   -17.7040   -43.2010 O.3    9555  TIP9405    -0.4105
 47576 H1         -33.2550   -17.2170   -42.6910 H      9555  TIP9405     0.2052
 47577 H2         -32.0990   -17.0290   -43.6510 H      9555  TIP9405     0.2052
 47578 OH2         -1.3180   -20.8260    52.6800 O.3    9556  TIP9406    -0.4105
 47579 H1          -0.8030   -21.6310    52.6350 H      9556  TIP9406     0.2052
 47580 H2          -0.8780   -20.2950    53.3430 H      9556  TIP9406     0.2052
 47581 OH2        -13.0330    13.9230   -53.9600 O.3    9557  TIP9407    -0.4105
 47582 H1         -12.1630    13.9700   -54.3570 H      9557  TIP9407     0.2052
 47583 H2         -13.2280    14.8240   -53.7030 H      9557  TIP9407     0.2052
 47584 OH2        -19.9050   -14.2900   -54.6550 O.3    9558  TIP9408    -0.4105
 47585 H1         -20.2240   -14.1190   -55.5410 H      9558  TIP9408     0.2052
 47586 H2         -20.6150   -13.9970   -54.0840 H      9558  TIP9408     0.2052
 47587 OH2         24.4720    -8.8730   -45.2200 O.3    9559  TIP9409    -0.4105
 47588 H1          24.2500    -9.1130   -46.1200 H      9559  TIP9409     0.2052
 47589 H2          25.3900    -8.6050   -45.2630 H      9559  TIP9409     0.2052
 47590 OH2         23.2950   -14.5530   -53.1550 O.3    9560  TIP9410    -0.4105
 47591 H1          22.5570   -14.5770   -52.5460 H      9560  TIP9410     0.2052
 47592 H2          24.0660   -14.6880   -52.6040 H      9560  TIP9410     0.2052
 47593 OH2          6.3530    17.8020   -50.5050 O.3    9561  TIP9411    -0.4105
 47594 H1           5.5450    17.3000   -50.4030 H      9561  TIP9411     0.2052
 47595 H2           6.3290    18.1130   -51.4100 H      9561  TIP9411     0.2052
 47596 OH2        -22.4600   -32.5640   -31.6230 O.3    9562  TIP9412    -0.4105
 47597 H1         -21.7880   -33.2330   -31.4920 H      9562  TIP9412     0.2052
 47598 H2         -23.0220   -32.9210   -32.3100 H      9562  TIP9412     0.2052
 47599 OH2        -32.3730   -25.0290   -31.9340 O.3    9563  TIP9413    -0.4105
 47600 H1         -33.1290   -24.7060   -32.4230 H      9563  TIP9413     0.2052
 47601 H2         -32.6740   -25.8490   -31.5410 H      9563  TIP9413     0.2052
 47602 OH2         23.1960   -22.6240    34.6130 O.3    9564  TIP9414    -0.4105
 47603 H1          23.6320   -22.6370    33.7610 H      9564  TIP9414     0.2052
 47604 H2          22.6300   -23.3970    34.6040 H      9564  TIP9414     0.2052
 47605 OH2         12.2990   -16.4760   -49.7640 O.3    9565  TIP9415    -0.4105
 47606 H1          11.9840   -15.6550   -49.3870 H      9565  TIP9415     0.2052
 47607 H2          13.2380   -16.3390   -49.8900 H      9565  TIP9415     0.2052
 47608 OH2         11.8030     0.9740    49.1670 O.3    9566  TIP9416    -0.4105
 47609 H1          11.4650     0.1240    48.8850 H      9566  TIP9416     0.2052
 47610 H2          12.5200     1.1610    48.5610 H      9566  TIP9416     0.2052
 47611 OH2          9.0070    32.3690    23.7030 O.3    9567  TIP9417    -0.4105
 47612 H1           8.3730    32.8640    24.2220 H      9567  TIP9417     0.2052
 47613 H2           8.5300    32.1280    22.9090 H      9567  TIP9417     0.2052
 47614 OH2         -7.8110     3.6750    42.7520 O.3    9568  TIP9418    -0.4105
 47615 H1          -7.1810     3.6950    43.4730 H      9568  TIP9418     0.2052
 47616 H2          -7.2850     3.4700    41.9800 H      9568  TIP9418     0.2052
 47617 OH2         -9.3760   -31.8220   -36.2310 O.3    9569  TIP9419    -0.4105
 47618 H1          -8.9150   -31.7980   -35.3920 H      9569  TIP9419     0.2052
 47619 H2          -9.8680   -31.0010   -36.2570 H      9569  TIP9419     0.2052
 47620 OH2          5.7330    -8.6150   -23.9430 O.3    9570  TIP9420    -0.4105
 47621 H1           5.9820    -8.5030   -23.0260 H      9570  TIP9420     0.2052
 47622 H2           5.0010    -8.0110   -24.0680 H      9570  TIP9420     0.2052
 47623 OH2        -14.5610    32.2530    46.0800 O.3    9571  TIP9421    -0.4105
 47624 H1         -15.0780    31.9740    46.8360 H      9571  TIP9421     0.2052
 47625 H2         -15.1060    32.0350    45.3230 H      9571  TIP9421     0.2052
 47626 OH2        -16.1450    26.8160    43.4700 O.3    9572  TIP9422    -0.4105
 47627 H1         -15.3090    26.3550    43.5500 H      9572  TIP9422     0.2052
 47628 H2         -15.9100    27.7440    43.4930 H      9572  TIP9422     0.2052
 47629 OH2        -16.1300   -13.6110    50.0590 O.3    9573  TIP9423    -0.4105
 47630 H1         -16.2200   -14.1290    49.2590 H      9573  TIP9423     0.2052
 47631 H2         -16.4400   -12.7380    49.8170 H      9573  TIP9423     0.2052
 47632 OH2        -30.2230    -8.6050   -11.2610 O.3    9574  TIP9424    -0.4105
 47633 H1         -29.3050    -8.3860   -11.1000 H      9574  TIP9424     0.2052
 47634 H2         -30.2170    -9.5470   -11.4340 H      9574  TIP9424     0.2052
 47635 OH2          9.5600   -15.5280   -34.5510 O.3    9575  TIP9425    -0.4105
 47636 H1           9.8060   -15.9110   -33.7090 H      9575  TIP9425     0.2052
 47637 H2           9.0400   -14.7580   -34.3210 H      9575  TIP9425     0.2052
 47638 OH2         16.9900    12.4140   -19.8980 O.3    9576  TIP9426    -0.4105
 47639 H1          16.2490    12.2630   -19.3110 H      9576  TIP9426     0.2052
 47640 H2          17.1640    11.5590   -20.2910 H      9576  TIP9426     0.2052
 47641 OH2          0.0310   -24.6160   -24.3280 O.3    9577  TIP9427    -0.4105
 47642 H1           0.6630   -23.9000   -24.2560 H      9577  TIP9427     0.2052
 47643 H2           0.2900   -25.2350   -23.6450 H      9577  TIP9427     0.2052
 47644 OH2        -29.5320   -18.8030   -52.9630 O.3    9578  TIP9428    -0.4105
 47645 H1         -29.1940   -18.4180   -53.7710 H      9578  TIP9428     0.2052
 47646 H2         -29.0570   -18.3510   -52.2650 H      9578  TIP9428     0.2052
 47647 OH2        -15.0270   -24.8010    53.0440 O.3    9579  TIP9429    -0.4105
 47648 H1         -15.3670   -24.1980    53.7050 H      9579  TIP9429     0.2052
 47649 H2         -14.1570   -25.0400    53.3640 H      9579  TIP9429     0.2052
 47650 OH2          8.2660   -12.9090   -38.2810 O.3    9580  TIP9430    -0.4105
 47651 H1           8.0520   -13.8200   -38.0800 H      9580  TIP9430     0.2052
 47652 H2           8.2620   -12.8660   -39.2370 H      9580  TIP9430     0.2052
 47653 OH2        -25.7040   -11.9540    41.5100 O.3    9581  TIP9431    -0.4105
 47654 H1         -25.1750   -12.2570    42.2470 H      9581  TIP9431     0.2052
 47655 H2         -26.5240   -11.6590    41.9070 H      9581  TIP9431     0.2052
 47656 OH2         30.5320   -11.8480    39.7520 O.3    9582  TIP9432    -0.4105
 47657 H1          29.9710   -11.2100    40.1920 H      9582  TIP9432     0.2052
 47658 H2          31.3730   -11.4020    39.6560 H      9582  TIP9432     0.2052
 47659 OH2          7.4990    10.4550   -36.1250 O.3    9583  TIP9433    -0.4105
 47660 H1           7.4560    11.2780   -36.6120 H      9583  TIP9433     0.2052
 47661 H2           8.0820    10.6410   -35.3900 H      9583  TIP9433     0.2052
 47662 OH2         14.8270    26.4580   -53.1240 O.3    9584  TIP9434    -0.4105
 47663 H1          15.4670    27.1680   -53.0630 H      9584  TIP9434     0.2052
 47664 H2          14.7620    26.1160   -52.2330 H      9584  TIP9434     0.2052
 47665 OH2         29.0400   -18.9760   -55.4290 O.3    9585  TIP9435    -0.4105
 47666 H1          28.7030   -18.1410   -55.7540 H      9585  TIP9435     0.2052
 47667 H2          29.6490   -18.7330   -54.7320 H      9585  TIP9435     0.2052
 47668 OH2         -0.7590    29.3910    28.5820 O.3    9586  TIP9436    -0.4105
 47669 H1           0.1310    29.7190    28.4580 H      9586  TIP9436     0.2052
 47670 H2          -1.1610    29.4520    27.7160 H      9586  TIP9436     0.2052
 47671 OH2        -10.6210   -27.0050   -36.9120 O.3    9587  TIP9437    -0.4105
 47672 H1         -10.5640   -27.8930   -37.2640 H      9587  TIP9437     0.2052
 47673 H2          -9.9760   -26.5060   -37.4140 H      9587  TIP9437     0.2052
 47674 OH2        -28.5600    -8.3070   -22.6790 O.3    9588  TIP9438    -0.4105
 47675 H1         -28.2040    -8.3190   -21.7900 H      9588  TIP9438     0.2052
 47676 H2         -28.7410    -9.2260   -22.8770 H      9588  TIP9438     0.2052
 47677 OH2         29.1550   -31.4650    22.8050 O.3    9589  TIP9439    -0.4105
 47678 H1          28.3800   -31.7480    23.2900 H      9589  TIP9439     0.2052
 47679 H2          28.8720   -30.6770    22.3400 H      9589  TIP9439     0.2052
 47680 OH2        -18.2110     0.5560    31.2500 O.3    9590  TIP9440    -0.4105
 47681 H1         -18.2420     1.5120    31.1990 H      9590  TIP9440     0.2052
 47682 H2         -18.9400     0.3230    31.8260 H      9590  TIP9440     0.2052
 47683 OH2          6.8210    31.0720    50.4190 O.3    9591  TIP9441    -0.4105
 47684 H1           7.1590    31.4210    49.5940 H      9591  TIP9441     0.2052
 47685 H2           6.3600    30.2710    50.1690 H      9591  TIP9441     0.2052
 47686 OH2         13.2170    20.8690   -43.7210 O.3    9592  TIP9442    -0.4105
 47687 H1          13.4770    20.0590   -43.2830 H      9592  TIP9442     0.2052
 47688 H2          12.3550    21.0720   -43.3570 H      9592  TIP9442     0.2052
 47689 OH2         -5.3940    10.2830    44.1370 O.3    9593  TIP9443    -0.4105
 47690 H1          -5.5910    10.0270    45.0390 H      9593  TIP9443     0.2052
 47691 H2          -4.6980     9.6840    43.8640 H      9593  TIP9443     0.2052
 47692 OH2         27.2650    19.8080   -29.0130 O.3    9594  TIP9444    -0.4105
 47693 H1          26.5910    20.4660   -29.1820 H      9594  TIP9444     0.2052
 47694 H2          27.4540    19.4320   -29.8730 H      9594  TIP9444     0.2052
 47695 OH2        -11.4420    21.6910   -51.1890 O.3    9595  TIP9445    -0.4105
 47696 H1         -11.6600    21.1740   -50.4140 H      9595  TIP9445     0.2052
 47697 H2         -11.4580    22.5990   -50.8850 H      9595  TIP9445     0.2052
 47698 OH2        -26.9520   -23.7510    46.5490 O.3    9596  TIP9446    -0.4105
 47699 H1         -27.7130   -23.9680    47.0890 H      9596  TIP9446     0.2052
 47700 H2         -26.2920   -24.4000    46.7940 H      9596  TIP9446     0.2052
 47701 OH2          9.5310    18.6870   -42.4170 O.3    9597  TIP9447    -0.4105
 47702 H1           9.4340    19.5910   -42.1190 H      9597  TIP9447     0.2052
 47703 H2           9.6850    18.7600   -43.3590 H      9597  TIP9447     0.2052
 47704 OH2        -28.4960    29.9800   -34.6030 O.3    9598  TIP9448    -0.4105
 47705 H1         -28.6010    30.4130   -35.4500 H      9598  TIP9448     0.2052
 47706 H2         -28.0110    30.6100   -34.0700 H      9598  TIP9448     0.2052
 47707 OH2        -26.2430    31.4120    32.6060 O.3    9599  TIP9449    -0.4105
 47708 H1         -26.7330    31.3420    33.4250 H      9599  TIP9449     0.2052
 47709 H2         -25.3440    31.1840    32.8450 H      9599  TIP9449     0.2052
 47710 OH2         19.5080     3.0420   -17.9460 O.3    9600  TIP9450    -0.4105
 47711 H1          19.9220     2.7890   -17.1210 H      9600  TIP9450     0.2052
 47712 H2          18.9260     3.7650   -17.7110 H      9600  TIP9450     0.2052
 47713 OH2        -11.6440   -10.3970    48.8890 O.3    9601  TIP9451    -0.4105
 47714 H1         -11.9460   -10.9290    49.6250 H      9601  TIP9451     0.2052
 47715 H2         -11.3510    -9.5780    49.2890 H      9601  TIP9451     0.2052
 47716 OH2        -13.0830    26.7660    22.4390 O.3    9602  TIP9452    -0.4105
 47717 H1         -12.2350    26.3240    22.3830 H      9602  TIP9452     0.2052
 47718 H2         -13.0160    27.4920    21.8200 H      9602  TIP9452     0.2052
 47719 OH2         21.3120     3.0350   -44.9930 O.3    9603  TIP9453    -0.4105
 47720 H1          20.5490     2.7970   -44.4660 H      9603  TIP9453     0.2052
 47721 H2          21.1760     2.5880   -45.8280 H      9603  TIP9453     0.2052
 47722 OH2         32.2140    19.1650    36.1040 O.3    9604  TIP9454    -0.4105
 47723 H1          31.6820    19.1400    36.9000 H      9604  TIP9454     0.2052
 47724 H2          31.6330    19.5320    35.4380 H      9604  TIP9454     0.2052
 47725 OH2         20.6950    28.1000   -32.5540 O.3    9605  TIP9455    -0.4105
 47726 H1          20.1870    27.3540   -32.2340 H      9605  TIP9455     0.2052
 47727 H2          20.0450    28.7850   -32.7090 H      9605  TIP9455     0.2052
 47728 OH2        -27.8490     1.5640   -29.6160 O.3    9606  TIP9456    -0.4105
 47729 H1         -27.3300     1.6170   -30.4190 H      9606  TIP9456     0.2052
 47730 H2         -27.3240     1.0230   -29.0260 H      9606  TIP9456     0.2052
 47731 OH2         11.4560    -4.2370   -50.8390 O.3    9607  TIP9457    -0.4105
 47732 H1          11.9580    -4.4620   -50.0560 H      9607  TIP9457     0.2052
 47733 H2          12.1160    -4.1260   -51.5240 H      9607  TIP9457     0.2052
 47734 OH2        -16.7550   -10.8260    52.7350 O.3    9608  TIP9458    -0.4105
 47735 H1         -15.8530   -10.9330    52.4310 H      9608  TIP9458     0.2052
 47736 H2         -17.2410   -10.5640    51.9530 H      9608  TIP9458     0.2052
 47737 OH2         28.5550   -12.9940    37.6020 O.3    9609  TIP9459    -0.4105
 47738 H1          29.4400   -12.7150    37.3690 H      9609  TIP9459     0.2052
 47739 H2          28.6810   -13.6280    38.3080 H      9609  TIP9459     0.2052
 47740 OH2        -15.2800    -4.7410   -28.9020 O.3    9610  TIP9460    -0.4105
 47741 H1         -14.5020    -4.1950   -28.7840 H      9610  TIP9460     0.2052
 47742 H2         -15.2240    -5.0450   -29.8080 H      9610  TIP9460     0.2052
 47743 OH2        -28.1670    14.5700    40.4210 O.3    9611  TIP9461    -0.4105
 47744 H1         -27.9860    14.7480    39.4980 H      9611  TIP9461     0.2052
 47745 H2         -27.5090    13.9230    40.6750 H      9611  TIP9461     0.2052
 47746 OH2         32.4420     4.7050   -52.2130 O.3    9612  TIP9462    -0.4105
 47747 H1          32.7810     4.8000   -53.1030 H      9612  TIP9462     0.2052
 47748 H2          31.8080     5.4160   -52.1200 H      9612  TIP9462     0.2052
 47749 OH2        -16.1240   -27.9270   -26.5250 O.3    9613  TIP9463    -0.4105
 47750 H1         -16.1800   -27.3180   -25.7880 H      9613  TIP9463     0.2052
 47751 H2         -15.8150   -28.7460   -26.1370 H      9613  TIP9463     0.2052
 47752 OH2         -3.7140   -20.0530   -53.5060 O.3    9614  TIP9464    -0.4105
 47753 H1          -3.7730   -20.6290   -54.2680 H      9614  TIP9464     0.2052
 47754 H2          -4.6050   -19.7280   -53.3810 H      9614  TIP9464     0.2052
 47755 OH2          3.8030    -8.1100   -38.4510 O.3    9615  TIP9465    -0.4105
 47756 H1           3.4630    -8.7350   -39.0920 H      9615  TIP9465     0.2052
 47757 H2           3.3350    -8.3170   -37.6430 H      9615  TIP9465     0.2052
 47758 OH2        -13.6470    24.7110   -39.2580 O.3    9616  TIP9466    -0.4105
 47759 H1         -12.8210    24.3760   -38.9100 H      9616  TIP9466     0.2052
 47760 H2         -13.4480    25.6070   -39.5280 H      9616  TIP9466     0.2052
 47761 OH2        -10.3910    15.4700   -54.5450 O.3    9617  TIP9467    -0.4105
 47762 H1          -9.7380    14.7710   -54.5820 H      9617  TIP9467     0.2052
 47763 H2         -10.6380    15.6160   -55.4580 H      9617  TIP9467     0.2052
 47764 OH2         32.1220    29.4090   -30.8160 O.3    9618  TIP9468    -0.4105
 47765 H1          31.9440    28.9320   -30.0060 H      9618  TIP9468     0.2052
 47766 H2          32.0540    30.3320   -30.5720 H      9618  TIP9468     0.2052
 47767 OH2        -22.8410     8.1620    38.4280 O.3    9619  TIP9469    -0.4105
 47768 H1         -22.8800     9.1110    38.3120 H      9619  TIP9469     0.2052
 47769 H2         -22.5080     7.8320    37.5940 H      9619  TIP9469     0.2052
 47770 OH2          0.0670    -0.0910   -46.3440 O.3    9620  TIP9470    -0.4105
 47771 H1           0.5200    -0.3880   -47.1330 H      9620  TIP9470     0.2052
 47772 H2          -0.1900    -0.8980   -45.8970 H      9620  TIP9470     0.2052
 47773 OH2         10.7970   -12.0820   -18.8270 O.3    9621  TIP9471    -0.4105
 47774 H1          11.5520   -12.3610   -19.3470 H      9621  TIP9471     0.2052
 47775 H2          10.5870   -11.2100   -19.1590 H      9621  TIP9471     0.2052
 47776 OH2         32.3780    15.7510   -51.4940 O.3    9622  TIP9472    -0.4105
 47777 H1          31.9960    16.1970   -52.2500 H      9622  TIP9472     0.2052
 47778 H2          33.3230    15.8070   -51.6350 H      9622  TIP9472     0.2052
 47779 OH2         -2.9740     9.3680   -36.3650 O.3    9623  TIP9473    -0.4105
 47780 H1          -3.2570     9.1730   -35.4710 H      9623  TIP9473     0.2052
 47781 H2          -3.7860     9.5360   -36.8420 H      9623  TIP9473     0.2052
 47782 OH2        -15.0160     5.0850    25.3890 O.3    9624  TIP9474    -0.4105
 47783 H1         -14.7230     5.7480    24.7640 H      9624  TIP9474     0.2052
 47784 H2         -15.1430     4.2970    24.8610 H      9624  TIP9474     0.2052
 47785 OH2         16.0070     8.7430    45.8360 O.3    9625  TIP9475    -0.4105
 47786 H1          16.9510     8.8960    45.8470 H      9625  TIP9475     0.2052
 47787 H2          15.7120     9.1220    45.0080 H      9625  TIP9475     0.2052
 47788 OH2         12.1070    -5.9030    -5.1930 O.3    9626  TIP9476    -0.4105
 47789 H1          12.0650    -4.9520    -5.0860 H      9626  TIP9476     0.2052
 47790 H2          11.3780    -6.1110    -5.7770 H      9626  TIP9476     0.2052
 47791 OH2        -20.8310    -5.7500    30.1250 O.3    9627  TIP9477    -0.4105
 47792 H1         -21.5350    -5.1140    30.2500 H      9627  TIP9477     0.2052
 47793 H2         -21.0390    -6.1780    29.2940 H      9627  TIP9477     0.2052
 47794 OH2        -30.6010   -24.5530   -37.2830 O.3    9628  TIP9478    -0.4105
 47795 H1         -29.8810   -25.1780   -37.2130 H      9628  TIP9478     0.2052
 47796 H2         -31.2810   -24.9040   -36.7080 H      9628  TIP9478     0.2052
 47797 OH2         32.6320   -18.2270   -24.7530 O.3    9629  TIP9479    -0.4105
 47798 H1          32.2260   -17.8290   -23.9830 H      9629  TIP9479     0.2052
 47799 H2          32.9340   -19.0830   -24.4500 H      9629  TIP9479     0.2052
 47800 OH2         32.8790   -14.8610    17.9960 O.3    9630  TIP9480    -0.4105
 47801 H1          32.5270   -13.9860    17.8360 H      9630  TIP9480     0.2052
 47802 H2          33.0780   -14.8720    18.9320 H      9630  TIP9480     0.2052
 47803 OH2          8.3750   -31.8360   -30.6210 O.3    9631  TIP9481    -0.4105
 47804 H1           8.6950   -31.5950   -31.4910 H      9631  TIP9481     0.2052
 47805 H2           8.8030   -31.2180   -30.0290 H      9631  TIP9481     0.2052
 47806 OH2         16.0370   -27.1890    50.0870 O.3    9632  TIP9482    -0.4105
 47807 H1          16.6010   -26.4710    50.3720 H      9632  TIP9482     0.2052
 47808 H2          16.0600   -27.1490    49.1310 H      9632  TIP9482     0.2052
 47809 OH2         -8.7660   -22.4710   -48.1810 O.3    9633  TIP9483    -0.4105
 47810 H1          -8.7750   -21.9480   -48.9830 H      9633  TIP9483     0.2052
 47811 H2          -8.7280   -21.8260   -47.4750 H      9633  TIP9483     0.2052
 47812 OH2        -18.0430    23.5460    48.1390 O.3    9634  TIP9484    -0.4105
 47813 H1         -17.9360    23.5850    49.0900 H      9634  TIP9484     0.2052
 47814 H2         -17.7630    24.4080    47.8310 H      9634  TIP9484     0.2052
 47815 OH2         21.3070   -14.0740   -43.4080 O.3    9635  TIP9485    -0.4105
 47816 H1          21.1390   -14.8190   -43.9840 H      9635  TIP9485     0.2052
 47817 H2          21.4170   -14.4620   -42.5400 H      9635  TIP9485     0.2052
 47818 OH2          8.9390     9.7270   -55.3880 O.3    9636  TIP9486    -0.4105
 47819 H1           8.2980     9.4950   -56.0600 H      9636  TIP9486     0.2052
 47820 H2           9.0080     8.9430   -54.8420 H      9636  TIP9486     0.2052
 47821 OH2        -31.8880   -13.5040   -22.4840 O.3    9637  TIP9487    -0.4105
 47822 H1         -32.3340   -14.3320   -22.6650 H      9637  TIP9487     0.2052
 47823 H2         -31.9990   -13.3730   -21.5420 H      9637  TIP9487     0.2052
 47824 OH2        -32.8010   -20.1300   -29.2550 O.3    9638  TIP9488    -0.4105
 47825 H1         -31.9590   -19.7160   -29.4430 H      9638  TIP9488     0.2052
 47826 H2         -32.8750   -20.8310   -29.9020 H      9638  TIP9488     0.2052
 47827 OH2        -23.8510    32.1090   -20.5740 O.3    9639  TIP9489    -0.4105
 47828 H1         -23.5230    33.0060   -20.6360 H      9639  TIP9489     0.2052
 47829 H2         -24.7090    32.1960   -20.1590 H      9639  TIP9489     0.2052
 47830 OH2          2.5220     4.1380   -32.1400 O.3    9640  TIP9490    -0.4105
 47831 H1           3.4200     3.9740   -31.8520 H      9640  TIP9490     0.2052
 47832 H2           2.5690     4.1190   -33.0960 H      9640  TIP9490     0.2052
 47833 OH2         23.4960    15.9000    27.1750 O.3    9641  TIP9491    -0.4105
 47834 H1          23.0450    15.9470    28.0180 H      9641  TIP9491     0.2052
 47835 H2          23.8410    15.0080    27.1370 H      9641  TIP9491     0.2052
 47836 OH2          4.3090     8.5460   -43.8500 O.3    9642  TIP9492    -0.4105
 47837 H1           5.2310     8.5480   -44.1070 H      9642  TIP9492     0.2052
 47838 H2           3.9310     9.2960   -44.3100 H      9642  TIP9492     0.2052
 47839 OH2         18.2900     9.2740    47.1750 O.3    9643  TIP9493    -0.4105
 47840 H1          18.2750    10.2310    47.1920 H      9643  TIP9493     0.2052
 47841 H2          18.4970     9.0210    48.0740 H      9643  TIP9493     0.2052
 47842 OH2        -11.4690   -20.7250   -47.8170 O.3    9644  TIP9494    -0.4105
 47843 H1         -11.2310   -20.3720   -46.9590 H      9644  TIP9494     0.2052
 47844 H2         -12.2570   -21.2430   -47.6530 H      9644  TIP9494     0.2052
 47845 OH2         16.9890     5.8170   -43.8110 O.3    9645  TIP9495    -0.4105
 47846 H1          16.2180     6.1920   -43.3860 H      9645  TIP9495     0.2052
 47847 H2          17.7320     6.2380   -43.3780 H      9645  TIP9495     0.2052
 47848 OH2         -7.1810   -15.9080    38.3810 O.3    9646  TIP9496    -0.4105
 47849 H1          -7.2680   -15.9390    37.4290 H      9646  TIP9496     0.2052
 47850 H2          -6.4300   -15.3340    38.5350 H      9646  TIP9496     0.2052
 47851 OH2        -17.8670    -8.1570   -38.3350 O.3    9647  TIP9497    -0.4105
 47852 H1         -17.4580    -8.5030   -39.1270 H      9647  TIP9497     0.2052
 47853 H2         -18.6620    -8.6790   -38.2280 H      9647  TIP9497     0.2052
 47854 OH2        -32.9270   -21.7120   -34.9640 O.3    9648  TIP9498    -0.4105
 47855 H1         -33.8290   -22.0310   -34.9840 H      9648  TIP9498     0.2052
 47856 H2         -32.8970   -21.0330   -35.6380 H      9648  TIP9498     0.2052
 47857 OH2         -0.6470    25.3310    45.2010 O.3    9649  TIP9499    -0.4105
 47858 H1          -0.0020    24.6720    44.9460 H      9649  TIP9499     0.2052
 47859 H2          -1.3850    25.1870    44.6090 H      9649  TIP9499     0.2052
 47860 OH2         13.6300   -25.0240    54.7540 O.3    9650  TIP9500    -0.4105
 47861 H1          13.1240   -25.8280    54.8690 H      9650  TIP9500     0.2052
 47862 H2          13.6260   -24.8710    53.8090 H      9650  TIP9500     0.2052
 47863 OH2        -30.9240    20.8950    46.5330 O.3    9651  TIP9501    -0.4105
 47864 H1         -30.2870    21.3190    47.1080 H      9651  TIP9501     0.2052
 47865 H2         -30.8030    21.3220    45.6850 H      9651  TIP9501     0.2052
 47866 OH2        -32.0550    20.3730   -48.5410 O.3    9652  TIP9502    -0.4105
 47867 H1         -32.3390    19.4850   -48.7580 H      9652  TIP9502     0.2052
 47868 H2         -32.5960    20.6210   -47.7910 H      9652  TIP9502     0.2052
 47869 OH2        -16.2500    -1.4470   -28.3610 O.3    9653  TIP9503    -0.4105
 47870 H1         -16.5770    -0.5600   -28.5130 H      9653  TIP9503     0.2052
 47871 H2         -15.2980    -1.3640   -28.4120 H      9653  TIP9503     0.2052
 47872 OH2         16.6150   -14.0630    24.5390 O.3    9654  TIP9504    -0.4105
 47873 H1          15.7320   -14.4100    24.6640 H      9654  TIP9504     0.2052
 47874 H2          16.4800   -13.1440    24.3080 H      9654  TIP9504     0.2052
 47875 OH2         -9.7520    25.6290   -37.9600 O.3    9655  TIP9505    -0.4105
 47876 H1         -10.2830    24.8750   -37.7030 H      9655  TIP9505     0.2052
 47877 H2          -8.8770    25.4320   -37.6260 H      9655  TIP9505     0.2052
 47878 OH2        -22.7920    30.7690    25.3810 O.3    9656  TIP9506    -0.4105
 47879 H1         -23.3070    30.5870    24.5950 H      9656  TIP9506     0.2052
 47880 H2         -21.8820    30.7350    25.0840 H      9656  TIP9506     0.2052
 47881 OH2         -3.0590   -21.2370   -46.2020 O.3    9657  TIP9507    -0.4105
 47882 H1          -3.5160   -20.3960   -46.2000 H      9657  TIP9507     0.2052
 47883 H2          -2.1300   -21.0050   -46.2010 H      9657  TIP9507     0.2052
 47884 OH2         -7.2400    17.3870    19.3510 O.3    9658  TIP9508    -0.4105
 47885 H1          -7.4220    18.3240    19.4300 H      9658  TIP9508     0.2052
 47886 H2          -6.2990    17.3390    19.1850 H      9658  TIP9508     0.2052
 47887 OH2        -20.0880    -8.3760    34.7330 O.3    9659  TIP9509    -0.4105
 47888 H1         -19.5340    -7.8340    34.1710 H      9659  TIP9509     0.2052
 47889 H2         -19.4870    -8.7370    35.3850 H      9659  TIP9509     0.2052
 47890 OH2         10.8900   -28.7180   -53.4340 O.3    9660  TIP9510    -0.4105
 47891 H1          10.8670   -27.9670   -52.8420 H      9660  TIP9510     0.2052
 47892 H2          11.7970   -29.0230   -53.4000 H      9660  TIP9510     0.2052
 47893 OH2        -16.8590     0.3180    53.1700 O.3    9661  TIP9511    -0.4105
 47894 H1         -16.2880    -0.2850    52.6940 H      9661  TIP9511     0.2052
 47895 H2         -17.1630     0.9350    52.5050 H      9661  TIP9511     0.2052
 47896 OH2         18.8980    -7.3320   -19.6550 O.3    9662  TIP9512    -0.4105
 47897 H1          18.7740    -6.4090   -19.8750 H      9662  TIP9512     0.2052
 47898 H2          18.5680    -7.4120   -18.7600 H      9662  TIP9512     0.2052
 47899 OH2          3.8300    -2.3900   -54.5710 O.3    9663  TIP9513    -0.4105
 47900 H1           3.7660    -3.3320   -54.4130 H      9663  TIP9513     0.2052
 47901 H2           4.6330    -2.1250   -54.1220 H      9663  TIP9513     0.2052
 47902 OH2         26.8400   -16.4320   -15.4760 O.3    9664  TIP9514    -0.4105
 47903 H1          26.9550   -17.2730   -15.0340 H      9664  TIP9514     0.2052
 47904 H2          26.1850   -15.9720   -14.9510 H      9664  TIP9514     0.2052
 47905 OH2          4.8730    12.5400    36.5580 O.3    9665  TIP9515    -0.4105
 47906 H1           4.8460    12.4020    35.6110 H      9665  TIP9515     0.2052
 47907 H2           5.3500    13.3630    36.6660 H      9665  TIP9515     0.2052
 47908 OH2        -21.3080    -5.6510   -43.1440 O.3    9666  TIP9516    -0.4105
 47909 H1         -21.2480    -6.0430   -44.0160 H      9666  TIP9516     0.2052
 47910 H2         -20.6570    -4.9490   -43.1510 H      9666  TIP9516     0.2052
 47911 OH2         32.1120   -18.2770    24.7420 O.3    9667  TIP9517    -0.4105
 47912 H1          31.4900   -17.7550    25.2500 H      9667  TIP9517     0.2052
 47913 H2          32.4480   -17.6730    24.0800 H      9667  TIP9517     0.2052
 47914 OH2         25.0680    10.8840   -25.6090 O.3    9668  TIP9518    -0.4105
 47915 H1          25.0670    11.7750   -25.2570 H      9668  TIP9518     0.2052
 47916 H2          25.5750    10.9460   -26.4180 H      9668  TIP9518     0.2052
 47917 OH2         21.3310    19.3190   -19.2910 O.3    9669  TIP9519    -0.4105
 47918 H1          21.9000    18.6530   -18.9050 H      9669  TIP9519     0.2052
 47919 H2          21.2680    19.9990   -18.6190 H      9669  TIP9519     0.2052
 47920 OH2        -27.0280     8.6410    40.2620 O.3    9670  TIP9520    -0.4105
 47921 H1         -26.4380     7.9240    40.0290 H      9670  TIP9520     0.2052
 47922 H2         -27.2830     8.4580    41.1660 H      9670  TIP9520     0.2052
 47923 OH2        -27.9730   -30.6140    53.2710 O.3    9671  TIP9521    -0.4105
 47924 H1         -27.4730   -29.8500    53.5580 H      9671  TIP9521     0.2052
 47925 H2         -27.8850   -31.2420    53.9890 H      9671  TIP9521     0.2052
 47926 OH2         23.5140    23.2970   -49.7780 O.3    9672  TIP9522    -0.4105
 47927 H1          22.6160    23.3380   -50.1060 H      9672  TIP9522     0.2052
 47928 H2          24.0580    23.4900   -50.5420 H      9672  TIP9522     0.2052
 47929 OH2         18.8960   -27.0510    30.5130 O.3    9673  TIP9523    -0.4105
 47930 H1          19.1350   -26.9810    29.5880 H      9673  TIP9523     0.2052
 47931 H2          18.8270   -26.1440    30.8120 H      9673  TIP9523     0.2052
 47932 OH2        -29.0790    12.2150    27.4900 O.3    9674  TIP9524    -0.4105
 47933 H1         -29.9240    11.8530    27.2230 H      9674  TIP9524     0.2052
 47934 H2         -29.3010    13.0120    27.9720 H      9674  TIP9524     0.2052
 47935 OH2         -7.4790    21.7820    51.1610 O.3    9675  TIP9525    -0.4105
 47936 H1          -7.6180    22.2670    51.9750 H      9675  TIP9525     0.2052
 47937 H2          -7.5620    20.8620    51.4120 H      9675  TIP9525     0.2052
 47938 OH2         -2.8960    12.8020    52.2180 O.3    9676  TIP9526    -0.4105
 47939 H1          -3.1420    12.0610    52.7710 H      9676  TIP9526     0.2052
 47940 H2          -3.3480    12.6430    51.3890 H      9676  TIP9526     0.2052
 47941 OH2          7.1080    12.6550    23.6390 O.3    9677  TIP9527    -0.4105
 47942 H1           7.7700    12.5790    24.3270 H      9677  TIP9527     0.2052
 47943 H2           7.5500    13.1250    22.9320 H      9677  TIP9527     0.2052
 47944 OH2         27.5800    11.4490   -44.3150 O.3    9678  TIP9528    -0.4105
 47945 H1          26.9170    11.7350   -44.9440 H      9678  TIP9528     0.2052
 47946 H2          27.6170    10.4980   -44.4210 H      9678  TIP9528     0.2052
 47947 OH2         25.5010    -6.2050   -29.1080 O.3    9679  TIP9529    -0.4105
 47948 H1          24.7620    -6.1080   -28.5080 H      9679  TIP9529     0.2052
 47949 H2          25.7860    -7.1110   -28.9930 H      9679  TIP9529     0.2052
 47950 OH2         13.3030    13.5970    45.1700 O.3    9680  TIP9530    -0.4105
 47951 H1          14.1750    13.3050    45.4350 H      9680  TIP9530     0.2052
 47952 H2          13.3180    14.5460    45.3010 H      9680  TIP9530     0.2052
 47953 OH2          5.4500    29.0930   -26.0300 O.3    9681  TIP9531    -0.4105
 47954 H1           4.5310    29.0790   -26.2980 H      9681  TIP9531     0.2052
 47955 H2           5.4710    28.5870   -25.2180 H      9681  TIP9531     0.2052
 47956 OH2         29.9020     1.9080    17.4220 O.3    9682  TIP9532    -0.4105
 47957 H1          30.4970     1.6430    16.7200 H      9682  TIP9532     0.2052
 47958 H2          29.8080     2.8540    17.3120 H      9682  TIP9532     0.2052
 47959 OH2         31.6600    -1.3940    27.1120 O.3    9683  TIP9533    -0.4105
 47960 H1          31.5310    -0.5310    27.5060 H      9683  TIP9533     0.2052
 47961 H2          30.8040    -1.6220    26.7500 H      9683  TIP9533     0.2052
 47962 OH2         -5.8100    19.2100   -34.5040 O.3    9684  TIP9534    -0.4105
 47963 H1          -5.3570    19.5560   -35.2730 H      9684  TIP9534     0.2052
 47964 H2          -5.1430    18.7030   -34.0410 H      9684  TIP9534     0.2052
 47965 OH2        -13.5730   -25.4230    40.7060 O.3    9685  TIP9535    -0.4105
 47966 H1         -13.4730   -24.4730    40.6430 H      9685  TIP9535     0.2052
 47967 H2         -14.2240   -25.5500    41.3960 H      9685  TIP9535     0.2052
 47968 OH2         26.6640   -10.8630   -39.0780 O.3    9686  TIP9536    -0.4105
 47969 H1          27.4250   -11.3820   -39.3380 H      9686  TIP9536     0.2052
 47970 H2          25.9170   -11.4450   -39.2160 H      9686  TIP9536     0.2052
 47971 OH2         11.7930     3.3970   -41.2060 O.3    9687  TIP9537    -0.4105
 47972 H1          11.4540     4.0510   -41.8180 H      9687  TIP9537     0.2052
 47973 H2          11.9140     3.8770   -40.3860 H      9687  TIP9537     0.2052
 47974 OH2         10.5750    21.6780   -42.8760 O.3    9688  TIP9538    -0.4105
 47975 H1          10.0330    21.3220   -43.5800 H      9688  TIP9538     0.2052
 47976 H2          10.5350    22.6260   -42.9980 H      9688  TIP9538     0.2052
 47977 OH2        -32.9740   -16.1120   -29.8160 O.3    9689  TIP9539    -0.4105
 47978 H1         -33.5920   -16.8420   -29.8560 H      9689  TIP9539     0.2052
 47979 H2         -32.2930   -16.3390   -30.4490 H      9689  TIP9539     0.2052
 47980 OH2         23.3890   -22.5690   -53.4680 O.3    9690  TIP9540    -0.4105
 47981 H1          24.1200   -22.7570   -54.0560 H      9690  TIP9540     0.2052
 47982 H2          23.3540   -21.6140   -53.4260 H      9690  TIP9540     0.2052
 47983 OH2         13.5240    15.8000    22.8230 O.3    9691  TIP9541    -0.4105
 47984 H1          13.6910    16.6360    23.2570 H      9691  TIP9541     0.2052
 47985 H2          12.6000    15.6200    22.9970 H      9691  TIP9541     0.2052
 47986 OH2        -11.7510   -31.7190    20.4470 O.3    9692  TIP9542    -0.4105
 47987 H1         -11.3290   -31.5840    19.5990 H      9692  TIP9542     0.2052
 47988 H2         -12.6640   -31.9100    20.2340 H      9692  TIP9542     0.2052
 47989 OH2         29.7580    17.7220   -44.6620 O.3    9693  TIP9543    -0.4105
 47990 H1          29.7810    16.7680   -44.5990 H      9693  TIP9543     0.2052
 47991 H2          28.8410    17.9510   -44.5130 H      9693  TIP9543     0.2052
 47992 OH2        -29.7520     6.7670    50.1550 O.3    9694  TIP9544    -0.4105
 47993 H1         -29.2980     6.1640    50.7440 H      9694  TIP9544     0.2052
 47994 H2         -29.1280     6.9270    49.4470 H      9694  TIP9544     0.2052
 47995 OH2         30.2140     8.3010   -28.6850 O.3    9695  TIP9545    -0.4105
 47996 H1          30.5690     7.4250   -28.5300 H      9695  TIP9545     0.2052
 47997 H2          30.5050     8.5240   -29.5690 H      9695  TIP9545     0.2052
 47998 OH2         30.6430   -13.6680    44.3220 O.3    9696  TIP9546    -0.4105
 47999 H1          29.7100   -13.8710    44.3900 H      9696  TIP9546     0.2052
 48000 H2          30.8480   -13.7910    43.3960 H      9696  TIP9546     0.2052
 48001 OH2        -12.7540    -3.2150   -29.7080 O.3    9697  TIP9547    -0.4105
 48002 H1         -12.4240    -3.4960   -28.8540 H      9697  TIP9547     0.2052
 48003 H2         -12.2180    -3.6940   -30.3410 H      9697  TIP9547     0.2052
 48004 OH2        -32.4980    -9.3170   -21.9860 O.3    9698  TIP9548    -0.4105
 48005 H1         -33.2020    -8.7040   -22.1970 H      9698  TIP9548     0.2052
 48006 H2         -32.6220    -9.5150   -21.0580 H      9698  TIP9548     0.2052
 48007 OH2          8.3040   -28.6640    48.1970 O.3    9699  TIP9549    -0.4105
 48008 H1           8.0570   -28.7860    47.2810 H      9699  TIP9549     0.2052
 48009 H2           9.0700   -29.2250    48.3170 H      9699  TIP9549     0.2052
 48010 OH2         19.0080    -5.3640    51.1710 O.3    9700  TIP9550    -0.4105
 48011 H1          18.3600    -5.5310    50.4860 H      9700  TIP9550     0.2052
 48012 H2          18.6140    -4.6820    51.7140 H      9700  TIP9550     0.2052
 48013 OH2         31.6570   -27.1090   -28.6690 O.3    9701  TIP9551    -0.4105
 48014 H1          31.4140   -27.7740   -28.0250 H      9701  TIP9551     0.2052
 48015 H2          31.6870   -26.2920   -28.1710 H      9701  TIP9551     0.2052
 48016 OH2        -17.7250    21.2210    33.3590 O.3    9702  TIP9552    -0.4105
 48017 H1         -17.0860    21.1830    32.6480 H      9702  TIP9552     0.2052
 48018 H2         -17.3310    20.7050    34.0630 H      9702  TIP9552     0.2052
 48019 OH2        -29.7330     1.1920    37.8970 O.3    9703  TIP9553    -0.4105
 48020 H1         -29.2240     0.4550    37.5600 H      9703  TIP9553     0.2052
 48021 H2         -29.7970     1.7980    37.1580 H      9703  TIP9553     0.2052
 48022 OH2        -32.6550    19.0760   -51.6640 O.3    9704  TIP9554    -0.4105
 48023 H1         -33.5750    19.0380   -51.4040 H      9704  TIP9554     0.2052
 48024 H2         -32.1740    18.8010   -50.8830 H      9704  TIP9554     0.2052
 48025 OH2          1.8030    11.4290   -20.6160 O.3    9705  TIP9555    -0.4105
 48026 H1           1.0420    11.8370   -20.2040 H      9705  TIP9555     0.2052
 48027 H2           2.5240    11.5950   -20.0080 H      9705  TIP9555     0.2052
 48028 OH2        -32.3400   -23.9910    21.2780 O.3    9706  TIP9556    -0.4105
 48029 H1         -32.0480   -24.7990    20.8550 H      9706  TIP9556     0.2052
 48030 H2         -32.9520   -23.6010    20.6540 H      9706  TIP9556     0.2052
 48031 OH2        -16.3200    15.4220    38.3320 O.3    9707  TIP9557    -0.4105
 48032 H1         -16.4150    16.3740    38.3580 H      9707  TIP9557     0.2052
 48033 H2         -15.4220    15.2620    38.6240 H      9707  TIP9557     0.2052
 48034 OH2        -22.5550     6.6820    32.9680 O.3    9708  TIP9558    -0.4105
 48035 H1         -22.8310     7.5980    32.9490 H      9708  TIP9558     0.2052
 48036 H2         -21.6190     6.7090    32.7680 H      9708  TIP9558     0.2052
 48037 OH2         -3.5390   -18.1570   -33.3430 O.3    9709  TIP9559    -0.4105
 48038 H1          -3.6770   -17.4580   -33.9830 H      9709  TIP9559     0.2052
 48039 H2          -4.2000   -18.8140   -33.5610 H      9709  TIP9559     0.2052
 48040 OH2          3.5260    17.2520   -45.6360 O.3    9710  TIP9560    -0.4105
 48041 H1           3.6810    17.7920   -44.8610 H      9710  TIP9560     0.2052
 48042 H2           2.6070    16.9940   -45.5690 H      9710  TIP9560     0.2052
 48043 OH2         -0.0220   -20.5220   -30.7390 O.3    9711  TIP9561    -0.4105
 48044 H1          -0.6520   -21.2430   -30.7590 H      9711  TIP9561     0.2052
 48045 H2          -0.2530   -19.9810   -31.4940 H      9711  TIP9561     0.2052
 48046 OH2        -10.6370   -18.2250    33.9250 O.3    9712  TIP9562    -0.4105
 48047 H1         -10.1670   -18.9970    34.2400 H      9712  TIP9562     0.2052
 48048 H2          -9.9510   -17.5820    33.7470 H      9712  TIP9562     0.2052
 48049 OH2         -2.4950     6.6790    50.8040 O.3    9713  TIP9563    -0.4105
 48050 H1          -2.7630     6.0320    51.4560 H      9713  TIP9563     0.2052
 48051 H2          -2.3220     7.4720    51.3110 H      9713  TIP9563     0.2052
 48052 OH2         26.2960    18.5260   -24.2100 O.3    9714  TIP9564    -0.4105
 48053 H1          26.0710    18.6340   -25.1340 H      9714  TIP9564     0.2052
 48054 H2          25.5730    18.9390   -23.7370 H      9714  TIP9564     0.2052
 48055 OH2          2.6840    30.1810   -26.2320 O.3    9715  TIP9565    -0.4105
 48056 H1           2.7520    30.5430   -25.3480 H      9715  TIP9565     0.2052
 48057 H2           1.9030    29.6280   -26.2050 H      9715  TIP9565     0.2052
 48058 OH2        -21.5900    14.2890   -48.8480 O.3    9716  TIP9566    -0.4105
 48059 H1         -21.9610    13.4110   -48.7580 H      9716  TIP9566     0.2052
 48060 H2         -21.8880    14.5870   -49.7080 H      9716  TIP9566     0.2052
 48061 OH2        -23.6520    13.6080    36.2190 O.3    9717  TIP9567    -0.4105
 48062 H1         -22.9370    13.5050    35.5900 H      9717  TIP9567     0.2052
 48063 H2         -24.1470    12.7920    36.1540 H      9717  TIP9567     0.2052
 48064 OH2         19.4780    15.3720    51.1220 O.3    9718  TIP9568    -0.4105
 48065 H1          18.6350    15.5880    51.5180 H      9718  TIP9568     0.2052
 48066 H2          19.5880    14.4350    51.2880 H      9718  TIP9568     0.2052
 48067 OH2          4.4040    28.9270   -38.7970 O.3    9719  TIP9569    -0.4105
 48068 H1           5.3160    28.7010   -38.9800 H      9719  TIP9569     0.2052
 48069 H2           4.4000    29.8830   -38.7440 H      9719  TIP9569     0.2052
 48070 OH2        -14.5110    -0.4080    51.9540 O.3    9720  TIP9570    -0.4105
 48071 H1         -13.6190    -0.6320    51.6900 H      9720  TIP9570     0.2052
 48072 H2         -14.4060     0.0580    52.7830 H      9720  TIP9570     0.2052
 48073 OH2          3.3620    -5.6400   -54.6620 O.3    9721  TIP9571    -0.4105
 48074 H1           2.7550    -6.2590   -55.0690 H      9721  TIP9571     0.2052
 48075 H2           3.9800    -6.1910   -54.1820 H      9721  TIP9571     0.2052
 48076 OH2         20.9140   -10.1640    24.0130 O.3    9722  TIP9572    -0.4105
 48077 H1          20.0440    -9.9840    23.6570 H      9722  TIP9572     0.2052
 48078 H2          20.7560   -10.7580    24.7460 H      9722  TIP9572     0.2052
 48079 OH2         -0.9910    10.3580    32.8860 O.3    9723  TIP9573    -0.4105
 48080 H1          -0.6250    11.1040    33.3610 H      9723  TIP9573     0.2052
 48081 H2          -0.4920    10.3250    32.0700 H      9723  TIP9573     0.2052
 48082 OH2         -1.1790     2.6910    40.4000 O.3    9724  TIP9574    -0.4105
 48083 H1          -0.3640     2.4660    39.9510 H      9724  TIP9574     0.2052
 48084 H2          -1.0350     3.5780    40.7280 H      9724  TIP9574     0.2052
 48085 OH2        -21.2920    15.1560    53.0720 O.3    9725  TIP9575    -0.4105
 48086 H1         -22.0190    14.9020    52.5040 H      9725  TIP9575     0.2052
 48087 H2         -20.5430    15.2370    52.4810 H      9725  TIP9575     0.2052
 48088 OH2         -9.1700   -25.2480   -46.0460 O.3    9726  TIP9576    -0.4105
 48089 H1          -9.9450   -24.9380   -45.5770 H      9726  TIP9576     0.2052
 48090 H2          -8.9050   -24.5050   -46.5880 H      9726  TIP9576     0.2052
 48091 OH2         13.5390   -10.7680   -46.9600 O.3    9727  TIP9577    -0.4105
 48092 H1          13.4010   -11.6750   -47.2330 H      9727  TIP9577     0.2052
 48093 H2          14.2900   -10.4740   -47.4750 H      9727  TIP9577     0.2052
 48094 OH2         22.8730   -12.4790   -41.7560 O.3    9728  TIP9578    -0.4105
 48095 H1          23.8010   -12.7000   -41.8340 H      9728  TIP9578     0.2052
 48096 H2          22.4880   -12.7620   -42.5850 H      9728  TIP9578     0.2052
 48097 OH2         18.5030    13.8720   -41.3120 O.3    9729  TIP9579    -0.4105
 48098 H1          18.4620    14.8180   -41.1730 H      9729  TIP9579     0.2052
 48099 H2          17.6160    13.6290   -41.5780 H      9729  TIP9579     0.2052
 48100 OH2        -21.4560   -23.9820   -30.0380 O.3    9730  TIP9580    -0.4105
 48101 H1         -20.6930   -23.4960   -29.7270 H      9730  TIP9580     0.2052
 48102 H2         -21.6740   -23.5770   -30.8770 H      9730  TIP9580     0.2052
 48103 OH2        -16.1670   -30.8610   -52.9820 O.3    9731  TIP9581    -0.4105
 48104 H1         -15.9160   -31.7810   -52.8990 H      9731  TIP9581     0.2052
 48105 H2         -15.8050   -30.5880   -53.8250 H      9731  TIP9581     0.2052
 48106 OH2          9.4250   -16.6180   -32.0630 O.3    9732  TIP9582    -0.4105
 48107 H1           8.6000   -17.1020   -32.0230 H      9732  TIP9582     0.2052
 48108 H2           9.9280   -17.0570   -32.7490 H      9732  TIP9582     0.2052
 48109 OH2         11.9480    -9.6250    55.4610 O.3    9733  TIP9583    -0.4105
 48110 H1          12.3070    -9.0160    56.1060 H      9733  TIP9583     0.2052
 48111 H2          11.1250    -9.9250    55.8460 H      9733  TIP9583     0.2052
 48112 OH2          5.0650   -31.5840    41.4290 O.3    9734  TIP9584    -0.4105
 48113 H1           5.1420   -32.5350    41.5050 H      9734  TIP9584     0.2052
 48114 H2           4.3570   -31.3520    42.0300 H      9734  TIP9584     0.2052
 48115 OH2        -11.7400    21.7570    21.4580 O.3    9735  TIP9585    -0.4105
 48116 H1         -12.2390    21.5610    22.2510 H      9735  TIP9585     0.2052
 48117 H2         -10.8680    21.4030    21.6300 H      9735  TIP9585     0.2052
 48118 OH2        -11.8480   -18.1070    28.4770 O.3    9736  TIP9586    -0.4105
 48119 H1         -12.7540   -18.3550    28.6600 H      9736  TIP9586     0.2052
 48120 H2         -11.8290   -17.9440    27.5340 H      9736  TIP9586     0.2052
 48121 OH2          9.7430    -3.8610   -21.3280 O.3    9737  TIP9587    -0.4105
 48122 H1           9.7080    -3.1030   -21.9110 H      9737  TIP9587     0.2052
 48123 H2           8.8260    -4.0760   -21.1580 H      9737  TIP9587     0.2052
 48124 OH2        -16.9680   -20.7960   -27.1440 O.3    9738  TIP9588    -0.4105
 48125 H1         -16.5330   -20.1150   -27.6570 H      9738  TIP9588     0.2052
 48126 H2         -17.2600   -20.3480   -26.3500 H      9738  TIP9588     0.2052
 48127 OH2          0.8170    10.3490   -51.4710 O.3    9739  TIP9589    -0.4105
 48128 H1           0.8900    10.5370   -52.4070 H      9739  TIP9589     0.2052
 48129 H2           1.6960    10.0700   -51.2130 H      9739  TIP9589     0.2052
 48130 OH2        -14.0540    21.3830    26.2260 O.3    9740  TIP9590    -0.4105
 48131 H1         -14.2530    21.2210    27.1480 H      9740  TIP9590     0.2052
 48132 H2         -13.6550    22.2530    26.2160 H      9740  TIP9590     0.2052
 48133 OH2        -10.2060   -10.3140   -40.6270 O.3    9741  TIP9591    -0.4105
 48134 H1         -10.9730   -10.5440   -40.1010 H      9741  TIP9591     0.2052
 48135 H2         -10.2120    -9.3570   -40.6540 H      9741  TIP9591     0.2052
 48136 OH2        -32.8600   -16.8350    48.4580 O.3    9742  TIP9592    -0.4105
 48137 H1         -32.1920   -16.7670    47.7750 H      9742  TIP9592     0.2052
 48138 H2         -32.6400   -17.6390    48.9290 H      9742  TIP9592     0.2052
 48139 OH2        -30.4390    29.1180   -20.4980 O.3    9743  TIP9593    -0.4105
 48140 H1         -30.3710    29.1390   -21.4520 H      9743  TIP9593     0.2052
 48141 H2         -31.1510    28.5030   -20.3210 H      9743  TIP9593     0.2052
 48142 OH2          4.2780   -15.3290   -38.1670 O.3    9744  TIP9594    -0.4105
 48143 H1           3.7550   -15.4570   -38.9580 H      9744  TIP9594     0.2052
 48144 H2           4.0300   -14.4600   -37.8520 H      9744  TIP9594     0.2052
 48145 OH2        -27.1280   -27.1720   -37.8290 O.3    9745  TIP9595    -0.4105
 48146 H1         -27.8470   -27.8030   -37.7950 H      9745  TIP9595     0.2052
 48147 H2         -27.4740   -26.3910   -37.3960 H      9745  TIP9595     0.2052
 48148 OH2         22.5340   -11.5470    33.5440 O.3    9746  TIP9596    -0.4105
 48149 H1          22.8010   -10.7660    34.0300 H      9746  TIP9596     0.2052
 48150 H2          21.5790   -11.4900    33.5050 H      9746  TIP9596     0.2052
 48151 OH2         -6.2810   -31.5790    29.2760 O.3    9747  TIP9597    -0.4105
 48152 H1          -5.6340   -30.9020    29.0780 H      9747  TIP9597     0.2052
 48153 H2          -6.7960   -31.6610    28.4730 H      9747  TIP9597     0.2052
 48154 OH2         29.1210   -18.2420    47.2880 O.3    9748  TIP9598    -0.4105
 48155 H1          28.5920   -17.6400    47.8110 H      9748  TIP9598     0.2052
 48156 H2          29.6800   -17.6730    46.7600 H      9748  TIP9598     0.2052
 48157 OH2        -24.7120    13.8110   -46.6870 O.3    9749  TIP9599    -0.4105
 48158 H1         -24.4400    12.8960   -46.7570 H      9749  TIP9599     0.2052
 48159 H2         -24.4970    14.1910   -47.5390 H      9749  TIP9599     0.2052
 48160 OH2        -19.9500    11.1770   -52.8990 O.3    9750  TIP9600    -0.4105
 48161 H1         -19.7290    12.0810   -52.6750 H      9750  TIP9600     0.2052
 48162 H2         -19.2080    10.8700   -53.4210 H      9750  TIP9600     0.2052
 48163 OH2         29.6430     0.1980   -26.7290 O.3    9751  TIP9601    -0.4105
 48164 H1          29.7390     0.9340   -26.1250 H      9751  TIP9601     0.2052
 48165 H2          30.5410    -0.0470   -26.9530 H      9751  TIP9601     0.2052
 48166 OH2        -19.0920    12.5260   -29.8800 O.3    9752  TIP9602    -0.4105
 48167 H1         -18.2520    12.7030   -29.4560 H      9752  TIP9602     0.2052
 48168 H2         -19.7450    12.7140   -29.2050 H      9752  TIP9602     0.2052
 48169 OH2        -20.0430    -0.4800    39.1660 O.3    9753  TIP9603    -0.4105
 48170 H1         -19.2920    -0.7230    38.6250 H      9753  TIP9603     0.2052
 48171 H2         -20.5440     0.1280    38.6230 H      9753  TIP9603     0.2052
 48172 OH2         -6.2990   -22.2480   -24.1220 O.3    9754  TIP9604    -0.4105
 48173 H1          -6.8120   -21.5370   -23.7380 H      9754  TIP9604     0.2052
 48174 H2          -6.4250   -22.9850   -23.5240 H      9754  TIP9604     0.2052
 48175 OH2        -12.5000    -9.5440   -25.3300 O.3    9755  TIP9605    -0.4105
 48176 H1         -13.1410    -9.3760   -24.6390 H      9755  TIP9605     0.2052
 48177 H2         -12.4200    -8.7090   -25.7910 H      9755  TIP9605     0.2052
 48178 OH2         -3.2620   -32.8670   -47.6940 O.3    9756  TIP9606    -0.4105
 48179 H1          -2.3900   -33.2520   -47.7840 H      9756  TIP9606     0.2052
 48180 H2          -3.2090   -32.0390   -48.1710 H      9756  TIP9606     0.2052
 48181 OH2          1.6570     2.5730    39.0190 O.3    9757  TIP9607    -0.4105
 48182 H1           2.2250     1.8110    38.9070 H      9757  TIP9607     0.2052
 48183 H2           2.0860     3.2670    38.5190 H      9757  TIP9607     0.2052
 48184 OH2         -1.9020    -7.2440   -15.2880 O.3    9758  TIP9608    -0.4105
 48185 H1          -0.9770    -7.1830   -15.0480 H      9758  TIP9608     0.2052
 48186 H2          -2.0110    -6.6000   -15.9880 H      9758  TIP9608     0.2052
 48187 OH2          0.4900    -7.5750   -54.1340 O.3    9759  TIP9609    -0.4105
 48188 H1           0.0790    -6.8950   -54.6680 H      9759  TIP9609     0.2052
 48189 H2           1.1800    -7.9340   -54.6930 H      9759  TIP9609     0.2052
 48190 OH2          0.7150    14.3700   -28.1000 O.3    9760  TIP9610    -0.4105
 48191 H1           0.4460    14.1680   -28.9960 H      9760  TIP9610     0.2052
 48192 H2           0.2970    13.6960   -27.5660 H      9760  TIP9610     0.2052
 48193 OH2         30.4270    23.7480   -32.2300 O.3    9761  TIP9611    -0.4105
 48194 H1          31.1400    24.3860   -32.2560 H      9761  TIP9611     0.2052
 48195 H2          30.0940    23.7220   -33.1270 H      9761  TIP9611     0.2052
 48196 OH2        -10.3520   -22.0030   -43.0370 O.3    9762  TIP9612    -0.4105
 48197 H1          -9.6380   -22.1490   -43.6570 H      9762  TIP9612     0.2052
 48198 H2         -10.2980   -21.0710   -42.8240 H      9762  TIP9612     0.2052
 48199 OH2         26.5190    -9.8710   -53.9520 O.3    9763  TIP9613    -0.4105
 48200 H1          25.6540    -9.4620   -53.9820 H      9763  TIP9613     0.2052
 48201 H2          27.1310    -9.1350   -53.9190 H      9763  TIP9613     0.2052
 48202 OH2         27.5570    25.8570    43.2820 O.3    9764  TIP9614    -0.4105
 48203 H1          27.0870    25.0760    42.9890 H      9764  TIP9614     0.2052
 48204 H2          27.3230    26.5310    42.6440 H      9764  TIP9614     0.2052
 48205 OH2         26.7990    31.9710   -37.7040 O.3    9765  TIP9615    -0.4105
 48206 H1          26.0990    31.9960   -37.0510 H      9765  TIP9615     0.2052
 48207 H2          26.6870    32.7770   -38.2080 H      9765  TIP9615     0.2052
 48208 OH2        -20.4750   -29.7810    30.7870 O.3    9766  TIP9616    -0.4105
 48209 H1         -20.2250   -29.1570    31.4690 H      9766  TIP9616     0.2052
 48210 H2         -19.6550   -29.9870    30.3390 H      9766  TIP9616     0.2052
 48211 OH2         -2.9040   -11.5090   -25.4900 O.3    9767  TIP9617    -0.4105
 48212 H1          -2.4180   -10.8100   -25.9260 H      9767  TIP9617     0.2052
 48213 H2          -2.9430   -12.2140   -26.1360 H      9767  TIP9617     0.2052
 48214 OH2        -16.9560    20.0810   -32.9050 O.3    9768  TIP9618    -0.4105
 48215 H1         -17.5670    19.5400   -33.4050 H      9768  TIP9618     0.2052
 48216 H2         -17.5020    20.7680   -32.5220 H      9768  TIP9618     0.2052
 48217 OH2        -30.8220   -15.8050   -50.8980 O.3    9769  TIP9619    -0.4105
 48218 H1         -31.5870   -16.1620   -51.3500 H      9769  TIP9619     0.2052
 48219 H2         -30.3850   -15.2650   -51.5570 H      9769  TIP9619     0.2052
 48220 OH2         14.8630     5.4440    26.8680 O.3    9770  TIP9620    -0.4105
 48221 H1          14.1260     5.9330    26.5020 H      9770  TIP9620     0.2052
 48222 H2          14.7730     4.5640    26.5040 H      9770  TIP9620     0.2052
 48223 OH2         12.9940    23.6620   -37.9250 O.3    9771  TIP9621    -0.4105
 48224 H1          13.7140    23.8430   -37.3200 H      9771  TIP9621     0.2052
 48225 H2          12.7720    24.5160   -38.2960 H      9771  TIP9621     0.2052
 48226 OH2         23.2580   -30.9740   -24.5180 O.3    9772  TIP9622    -0.4105
 48227 H1          22.7720   -30.7070   -23.7380 H      9772  TIP9622     0.2052
 48228 H2          23.3120   -30.1810   -25.0500 H      9772  TIP9622     0.2052
 48229 OH2        -21.0380    29.0700    35.0260 O.3    9773  TIP9623    -0.4105
 48230 H1         -20.0900    29.0610    35.1580 H      9773  TIP9623     0.2052
 48231 H2         -21.3640    29.7030    35.6660 H      9773  TIP9623     0.2052
 48232 OH2        -16.5480   -29.4210   -30.8740 O.3    9774  TIP9624    -0.4105
 48233 H1         -17.2580   -30.0290   -30.6710 H      9774  TIP9624     0.2052
 48234 H2         -15.7750   -29.9770   -30.9730 H      9774  TIP9624     0.2052
 48235 OH2         26.3050    -6.7570   -33.6860 O.3    9775  TIP9625    -0.4105
 48236 H1          25.7820    -6.9500   -34.4640 H      9775  TIP9625     0.2052
 48237 H2          27.1350    -7.2100   -33.8360 H      9775  TIP9625     0.2052
 48238 OH2        -25.6070    23.6180    19.3160 O.3    9776  TIP9626    -0.4105
 48239 H1         -25.6240    22.9890    18.5940 H      9776  TIP9626     0.2052
 48240 H2         -24.9290    24.2470    19.0700 H      9776  TIP9626     0.2052
 48241 OH2         18.3580    18.8510   -54.8870 O.3    9777  TIP9627    -0.4105
 48242 H1          19.0370    18.8040   -55.5600 H      9777  TIP9627     0.2052
 48243 H2          18.6360    18.2230   -54.2210 H      9777  TIP9627     0.2052
 48244 OH2        -15.3830    -8.1400    38.0630 O.3    9778  TIP9628    -0.4105
 48245 H1         -15.5470    -8.8890    37.4900 H      9778  TIP9628     0.2052
 48246 H2         -15.8760    -7.4220    37.6670 H      9778  TIP9628     0.2052
 48247 OH2         -2.9760   -28.6690   -25.1950 O.3    9779  TIP9629    -0.4105
 48248 H1          -3.6620   -28.7100   -24.5290 H      9779  TIP9629     0.2052
 48249 H2          -2.1930   -28.9980   -24.7530 H      9779  TIP9629     0.2052
 48250 OH2         17.0900    31.7710    21.4890 O.3    9780  TIP9630    -0.4105
 48251 H1          16.8050    30.8700    21.3420 H      9780  TIP9630     0.2052
 48252 H2          16.8980    32.2210    20.6660 H      9780  TIP9630     0.2052
 48253 OH2         -5.7130     3.7430   -25.4430 O.3    9781  TIP9631    -0.4105
 48254 H1          -4.9880     3.1190   -25.4860 H      9781  TIP9631     0.2052
 48255 H2          -6.4470     3.2340   -25.0990 H      9781  TIP9631     0.2052
 48256 OH2          0.8530    23.1790   -32.5250 O.3    9782  TIP9632    -0.4105
 48257 H1           1.5690    22.5460   -32.4740 H      9782  TIP9632     0.2052
 48258 H2           1.2730    24.0280   -32.3900 H      9782  TIP9632     0.2052
 48259 OH2          2.3190   -10.4360   -43.9820 O.3    9783  TIP9633    -0.4105
 48260 H1           3.2020   -10.1300   -43.7720 H      9783  TIP9633     0.2052
 48261 H2           1.7950    -9.6370   -44.0370 H      9783  TIP9633     0.2052
 48262 OH2          6.9040   -10.4300   -29.4090 O.3    9784  TIP9634    -0.4105
 48263 H1           6.7770   -10.4890   -30.3550 H      9784  TIP9634     0.2052
 48264 H2           7.5120    -9.7000   -29.2930 H      9784  TIP9634     0.2052
 48265 OH2          4.6390    12.1550   -29.5900 O.3    9785  TIP9635    -0.4105
 48266 H1           4.2680    12.1230   -28.7080 H      9785  TIP9635     0.2052
 48267 H2           4.4200    13.0300   -29.9110 H      9785  TIP9635     0.2052
 48268 OH2         20.5800     2.6640    42.7970 O.3    9786  TIP9636    -0.4105
 48269 H1          20.1350     3.4600    43.0880 H      9786  TIP9636     0.2052
 48270 H2          19.8830     2.0120    42.7280 H      9786  TIP9636     0.2052
 48271 OH2         14.3190     8.7450   -53.9120 O.3    9787  TIP9637    -0.4105
 48272 H1          14.6020     9.3930   -53.2670 H      9787  TIP9637     0.2052
 48273 H2          14.1270     9.2570   -54.6980 H      9787  TIP9637     0.2052
 48274 OH2          9.9540     4.1140    32.4330 O.3    9788  TIP9638    -0.4105
 48275 H1          10.6950     4.7120    32.3330 H      9788  TIP9638     0.2052
 48276 H2           9.6040     4.0160    31.5470 H      9788  TIP9638     0.2052
 48277 OH2         15.7190    -6.7890   -14.8070 O.3    9789  TIP9639    -0.4105
 48278 H1          15.3620    -7.3780   -15.4720 H      9789  TIP9639     0.2052
 48279 H2          15.1230    -6.8770   -14.0630 H      9789  TIP9639     0.2052
 48280 OH2          3.9400   -10.4640    39.0930 O.3    9790  TIP9640    -0.4105
 48281 H1           4.2250   -11.3000    38.7240 H      9790  TIP9640     0.2052
 48282 H2           4.7250   -10.1060    39.5090 H      9790  TIP9640     0.2052
 48283 OH2        -24.4720    31.4520   -54.7830 O.3    9791  TIP9641    -0.4105
 48284 H1         -25.2340    31.9810   -55.0160 H      9791  TIP9641     0.2052
 48285 H2         -24.6090    31.2240   -53.8630 H      9791  TIP9641     0.2052
 48286 OH2         24.5200    -4.8010   -22.4870 O.3    9792  TIP9642    -0.4105
 48287 H1          24.4100    -5.7490   -22.4060 H      9792  TIP9642     0.2052
 48288 H2          24.3500    -4.6170   -23.4110 H      9792  TIP9642     0.2052
 48289 OH2         16.1990   -21.8780   -33.5420 O.3    9793  TIP9643    -0.4105
 48290 H1          16.4530   -22.4870   -34.2360 H      9793  TIP9643     0.2052
 48291 H2          16.8980   -21.9490   -32.8920 H      9793  TIP9643     0.2052
 48292 OH2          3.2060   -29.9690   -53.9320 O.3    9794  TIP9644    -0.4105
 48293 H1           3.8310   -30.6490   -54.1840 H      9794  TIP9644     0.2052
 48294 H2           3.7310   -29.1710   -53.8690 H      9794  TIP9644     0.2052
 48295 OH2         18.6400   -28.2920    46.4780 O.3    9795  TIP9645    -0.4105
 48296 H1          17.6940   -28.4370    46.4780 H      9795  TIP9645     0.2052
 48297 H2          18.8550   -28.1110    47.3940 H      9795  TIP9645     0.2052
 48298 OH2         31.0100    12.8440    39.3950 O.3    9796  TIP9646    -0.4105
 48299 H1          31.5700    13.6120    39.5090 H      9796  TIP9646     0.2052
 48300 H2          30.9390    12.4660    40.2720 H      9796  TIP9646     0.2052
 48301 OH2         17.4860   -17.3410    51.1450 O.3    9797  TIP9647    -0.4105
 48302 H1          18.2460   -17.3670    50.5620 H      9797  TIP9647     0.2052
 48303 H2          17.7850   -16.8430    51.9060 H      9797  TIP9647     0.2052
 48304 OH2         16.2760   -24.0230   -50.6700 O.3    9798  TIP9648    -0.4105
 48305 H1          15.7020   -23.7620   -49.9500 H      9798  TIP9648     0.2052
 48306 H2          15.7040   -24.4990   -51.2720 H      9798  TIP9648     0.2052
 48307 OH2        -26.5070   -12.6250   -27.5150 O.3    9799  TIP9649    -0.4105
 48308 H1         -25.5530   -12.6330   -27.6000 H      9799  TIP9649     0.2052
 48309 H2         -26.6660   -12.7960   -26.5870 H      9799  TIP9649     0.2052
 48310 OH2        -28.6840   -15.9160   -25.6900 O.3    9800  TIP9650    -0.4105
 48311 H1         -27.9440   -16.3350   -25.2500 H      9800  TIP9650     0.2052
 48312 H2         -29.4160   -16.5170   -25.5540 H      9800  TIP9650     0.2052
 48313 OH2          8.8280   -14.7790    39.3900 O.3    9801  TIP9651    -0.4105
 48314 H1           9.2460   -15.5870    39.6870 H      9801  TIP9651     0.2052
 48315 H2           9.4490   -14.0880    39.6230 H      9801  TIP9651     0.2052
 48316 OH2        -18.1460   -18.6360   -21.2030 O.3    9802  TIP9652    -0.4105
 48317 H1         -18.6430   -18.5030   -20.3960 H      9802  TIP9652     0.2052
 48318 H2         -17.9910   -19.5790   -21.2370 H      9802  TIP9652     0.2052
 48319 OH2         -1.9760     9.4250    44.7580 O.3    9803  TIP9653    -0.4105
 48320 H1          -2.1310     8.9690    45.5850 H      9803  TIP9653     0.2052
 48321 H2          -2.6790     9.1230    44.1830 H      9803  TIP9653     0.2052
 48322 OH2        -17.0960    20.9950   -50.7400 O.3    9804  TIP9654    -0.4105
 48323 H1         -17.5660    21.7390   -50.3630 H      9804  TIP9654     0.2052
 48324 H2         -17.5900    20.7740   -51.5290 H      9804  TIP9654     0.2052
 48325 OH2          6.0290    -2.7370   -37.0850 O.3    9805  TIP9655    -0.4105
 48326 H1           5.4920    -2.1400   -37.6070 H      9805  TIP9655     0.2052
 48327 H2           6.5790    -3.1880   -37.7260 H      9805  TIP9655     0.2052
 48328 OH2         20.1420     3.1010   -25.9750 O.3    9806  TIP9656    -0.4105
 48329 H1          20.5720     3.9460   -26.1010 H      9806  TIP9656     0.2052
 48330 H2          19.6910     3.1840   -25.1350 H      9806  TIP9656     0.2052
 48331 OH2         24.7740    -1.1080   -29.2980 O.3    9807  TIP9657    -0.4105
 48332 H1          25.7070    -1.2530   -29.1370 H      9807  TIP9657     0.2052
 48333 H2          24.5530    -1.7260   -29.9950 H      9807  TIP9657     0.2052
 48334 OH2         -5.3580     3.2120   -51.5860 O.3    9808  TIP9658    -0.4105
 48335 H1          -5.7010     2.5810   -52.2190 H      9808  TIP9658     0.2052
 48336 H2          -6.0100     3.9120   -51.5670 H      9808  TIP9658     0.2052
 48337 OH2        -27.5090    32.2550   -30.9870 O.3    9809  TIP9659    -0.4105
 48338 H1         -28.0060    31.5280   -30.6110 H      9809  TIP9659     0.2052
 48339 H2         -27.7330    33.0080   -30.4400 H      9809  TIP9659     0.2052
 48340 OH2          0.6010    18.3710    53.8230 O.3    9810  TIP9660    -0.4105
 48341 H1           1.2010    17.6680    54.0730 H      9810  TIP9660     0.2052
 48342 H2           0.0770    17.9990    53.1140 H      9810  TIP9660     0.2052
 48343 OH2        -31.6210    18.9440   -43.4710 O.3    9811  TIP9661    -0.4105
 48344 H1         -31.6350    19.4820   -44.2630 H      9811  TIP9661     0.2052
 48345 H2         -32.2850    19.3340   -42.9040 H      9811  TIP9661     0.2052
 48346 OH2        -26.6440   -30.9200    41.8680 O.3    9812  TIP9662    -0.4105
 48347 H1         -27.1480   -31.0020    41.0580 H      9812  TIP9662     0.2052
 48348 H2         -26.3360   -31.8080    42.0510 H      9812  TIP9662     0.2052
 48349 OH2          1.3380   -18.5810    40.7660 O.3    9813  TIP9663    -0.4105
 48350 H1           1.3510   -19.4630    40.3950 H      9813  TIP9663     0.2052
 48351 H2           2.2150   -18.4600    41.1300 H      9813  TIP9663     0.2052
 48352 OH2          0.4330    -1.9480    20.2250 O.3    9814  TIP9664    -0.4105
 48353 H1           0.2990    -1.2280    20.8420 H      9814  TIP9664     0.2052
 48354 H2           1.3600    -1.8970    19.9940 H      9814  TIP9664     0.2052
 48355 OH2         -5.0760     8.7720    25.6820 O.3    9815  TIP9665    -0.4105
 48356 H1          -4.4610     8.2120    25.2080 H      9815  TIP9665     0.2052
 48357 H2          -5.5080     9.2850    24.9990 H      9815  TIP9665     0.2052
 48358 OH2        -19.3510   -19.2630   -26.5000 O.3    9816  TIP9666    -0.4105
 48359 H1         -19.0210   -20.0040   -25.9930 H      9816  TIP9666     0.2052
 48360 H2         -19.5940   -18.6110   -25.8420 H      9816  TIP9666     0.2052
 48361 OH2         13.5230    16.2600   -26.2770 O.3    9817  TIP9667    -0.4105
 48362 H1          13.2360    16.7370   -27.0560 H      9817  TIP9667     0.2052
 48363 H2          14.1400    15.6080   -26.6080 H      9817  TIP9667     0.2052
 48364 OH2         -6.3550   -21.8770    38.1500 O.3    9818  TIP9668    -0.4105
 48365 H1          -5.9770   -22.3690    38.8790 H      9818  TIP9668     0.2052
 48366 H2          -5.8900   -22.1970    37.3770 H      9818  TIP9668     0.2052
 48367 OH2         -2.5050     8.6950    31.0330 O.3    9819  TIP9669    -0.4105
 48368 H1          -3.4080     8.7270    31.3470 H      9819  TIP9669     0.2052
 48369 H2          -1.9770     8.6240    31.8280 H      9819  TIP9669     0.2052
 48370 OH2        -30.3960    -9.6030    36.9420 O.3    9820  TIP9670    -0.4105
 48371 H1         -30.2830    -9.9300    36.0500 H      9820  TIP9670     0.2052
 48372 H2         -31.3070    -9.8020    37.1570 H      9820  TIP9670     0.2052
 48373 OH2         -2.8810     4.3070    52.7660 O.3    9821  TIP9671    -0.4105
 48374 H1          -2.8870     3.7450    51.9910 H      9821  TIP9671     0.2052
 48375 H2          -1.9810     4.2600    53.0890 H      9821  TIP9671     0.2052
 48376 OH2        -26.0110    -4.5270   -46.7750 O.3    9822  TIP9672    -0.4105
 48377 H1         -25.1280    -4.8700   -46.6400 H      9822  TIP9672     0.2052
 48378 H2         -25.9120    -3.8710   -47.4650 H      9822  TIP9672     0.2052
 48379 OH2        -27.6440   -22.7070    53.0010 O.3    9823  TIP9673    -0.4105
 48380 H1         -27.0360   -22.9190    53.7090 H      9823  TIP9673     0.2052
 48381 H2         -27.1290   -22.1760    52.3930 H      9823  TIP9673     0.2052
 48382 OH2         31.5650    -6.7200   -46.2110 O.3    9824  TIP9674    -0.4105
 48383 H1          32.5100    -6.8480   -46.2920 H      9824  TIP9674     0.2052
 48384 H2          31.2920    -6.4040   -47.0720 H      9824  TIP9674     0.2052
 48385 OH2         12.6140     1.1690   -12.0670 O.3    9825  TIP9675    -0.4105
 48386 H1          11.9440     1.4780   -11.4570 H      9825  TIP9675     0.2052
 48387 H2          13.3360     0.8840   -11.5070 H      9825  TIP9675     0.2052
 48388 OH2         21.7300    -2.6350    47.6880 O.3    9826  TIP9676    -0.4105
 48389 H1          21.3720    -3.5150    47.5720 H      9826  TIP9676     0.2052
 48390 H2          22.0340    -2.6180    48.5950 H      9826  TIP9676     0.2052
 48391 OH2         10.6930     3.8850    46.0890 O.3    9827  TIP9677    -0.4105
 48392 H1           9.9890     4.0810    46.7080 H      9827  TIP9677     0.2052
 48393 H2          10.3300     3.2060    45.5200 H      9827  TIP9677     0.2052
 48394 OH2         18.2540   -14.3900   -24.6120 O.3    9828  TIP9678    -0.4105
 48395 H1          18.8010   -13.7120   -25.0080 H      9828  TIP9678     0.2052
 48396 H2          17.6700   -13.9130   -24.0230 H      9828  TIP9678     0.2052
 48397 OH2         27.5800     6.4940    22.9190 O.3    9829  TIP9679    -0.4105
 48398 H1          28.4470     6.2510    22.5960 H      9829  TIP9679     0.2052
 48399 H2          27.1460     6.8930    22.1650 H      9829  TIP9679     0.2052
 48400 OH2         -6.6700    24.4670    36.7270 O.3    9830  TIP9680    -0.4105
 48401 H1          -7.3770    25.0320    37.0400 H      9830  TIP9680     0.2052
 48402 H2          -7.1180    23.7240    36.3220 H      9830  TIP9680     0.2052
 48403 OH2        -10.2680   -30.4880    29.7420 O.3    9831  TIP9681    -0.4105
 48404 H1         -10.9340   -30.9290    29.2150 H      9831  TIP9681     0.2052
 48405 H2         -10.0720   -29.6850    29.2600 H      9831  TIP9681     0.2052
 48406 OH2         -9.3730     1.6050    44.0050 O.3    9832  TIP9682    -0.4105
 48407 H1          -9.7320     0.9950    43.3600 H      9832  TIP9682     0.2052
 48408 H2          -8.8110     2.1890    43.4960 H      9832  TIP9682     0.2052
 48409 OH2        -24.1920    -0.3080    24.7620 O.3    9833  TIP9683    -0.4105
 48410 H1         -23.7710     0.1310    25.5010 H      9833  TIP9683     0.2052
 48411 H2         -23.9560    -1.2300    24.8640 H      9833  TIP9683     0.2052
 48412 OH2        -12.5290    12.9260    29.8570 O.3    9834  TIP9684    -0.4105
 48413 H1         -13.0200    12.2540    30.3300 H      9834  TIP9684     0.2052
 48414 H2         -13.0220    13.7330    30.0080 H      9834  TIP9684     0.2052
 48415 OH2         25.6500    -1.6690    36.3840 O.3    9835  TIP9685    -0.4105
 48416 H1          25.6840    -0.8220    36.8270 H      9835  TIP9685     0.2052
 48417 H2          25.6920    -1.4550    35.4520 H      9835  TIP9685     0.2052
 48418 OH2         12.6130     2.4630    53.6970 O.3    9836  TIP9686    -0.4105
 48419 H1          13.3120     2.5450    54.3450 H      9836  TIP9686     0.2052
 48420 H2          13.0590     2.5270    52.8530 H      9836  TIP9686     0.2052
 48421 OH2        -26.2540   -19.2470    29.7930 O.3    9837  TIP9687    -0.4105
 48422 H1         -26.4670   -20.1760    29.7070 H      9837  TIP9687     0.2052
 48423 H2         -27.0990   -18.8190    29.9350 H      9837  TIP9687     0.2052
 48424 OH2         18.7540    -8.8820    50.6980 O.3    9838  TIP9688    -0.4105
 48425 H1          19.6450    -8.7310    50.3840 H      9838  TIP9688     0.2052
 48426 H2          18.7710    -8.6010    51.6130 H      9838  TIP9688     0.2052
 48427 OH2        -13.7600     8.2920   -39.3690 O.3    9839  TIP9689    -0.4105
 48428 H1         -14.4880     8.5980   -38.8280 H      9839  TIP9689     0.2052
 48429 H2         -13.5850     7.4050   -39.0550 H      9839  TIP9689     0.2052
 48430 OH2        -32.4330    14.3770    29.8250 O.3    9840  TIP9690    -0.4105
 48431 H1         -32.9200    13.8050    30.4170 H      9840  TIP9690     0.2052
 48432 H2         -31.5640    13.9800    29.7690 H      9840  TIP9690     0.2052
 48433 OH2         -5.7450   -23.6160    39.9740 O.3    9841  TIP9691    -0.4105
 48434 H1          -6.3170   -23.7440    40.7310 H      9841  TIP9691     0.2052
 48435 H2          -5.2320   -24.4220    39.9220 H      9841  TIP9691     0.2052
 48436 OH2        -27.7030   -27.6130   -54.7870 O.3    9842  TIP9692    -0.4105
 48437 H1         -27.9220   -28.4470   -55.2020 H      9842  TIP9692     0.2052
 48438 H2         -27.2090   -27.8560   -54.0040 H      9842  TIP9692     0.2052
 48439 OH2         16.1690    22.1190    35.6150 O.3    9843  TIP9693    -0.4105
 48440 H1          15.7790    22.8430    36.1060 H      9843  TIP9693     0.2052
 48441 H2          16.2290    22.4440    34.7170 H      9843  TIP9693     0.2052
 48442 OH2          0.6670    10.4960   -48.4720 O.3    9844  TIP9694    -0.4105
 48443 H1           1.6200    10.5800   -48.5110 H      9844  TIP9694     0.2052
 48444 H2           0.4170    10.2030   -49.3480 H      9844  TIP9694     0.2052
 48445 OH2        -19.0640    10.8750   -24.8380 O.3    9845  TIP9695    -0.4105
 48446 H1         -18.5170    10.1080   -24.6700 H      9845  TIP9695     0.2052
 48447 H2         -18.7670    11.5260   -24.2020 H      9845  TIP9695     0.2052
 48448 OH2         14.5020   -28.5310    31.4700 O.3    9846  TIP9696    -0.4105
 48449 H1          14.2420   -27.7090    31.0550 H      9846  TIP9696     0.2052
 48450 H2          15.1990   -28.2840    32.0780 H      9846  TIP9696     0.2052
 48451 OH2         28.9540     8.5500    41.3330 O.3    9847  TIP9697    -0.4105
 48452 H1          29.3330     8.1070    40.5740 H      9847  TIP9697     0.2052
 48453 H2          28.2310     7.9840    41.6050 H      9847  TIP9697     0.2052
 48454 OH2        -26.9660   -27.7440    53.4140 O.3    9848  TIP9698    -0.4105
 48455 H1         -26.9370   -27.0940    54.1160 H      9848  TIP9698     0.2052
 48456 H2         -27.3900   -27.2920    52.6850 H      9848  TIP9698     0.2052
 48457 OH2        -19.3630   -29.8740   -39.2530 O.3    9849  TIP9699    -0.4105
 48458 H1         -19.8970   -29.4740   -39.9390 H      9849  TIP9699     0.2052
 48459 H2         -18.7940   -30.4870   -39.7180 H      9849  TIP9699     0.2052
 48460 OH2        -24.7820    22.6930   -34.0580 O.3    9850  TIP9700    -0.4105
 48461 H1         -24.0800    22.5980   -33.4140 H      9850  TIP9700     0.2052
 48462 H2         -25.2920    21.8870   -33.9780 H      9850  TIP9700     0.2052
 48463 OH2          8.2900   -11.7140    34.6660 O.3    9851  TIP9701    -0.4105
 48464 H1           8.2240   -10.9420    35.2280 H      9851  TIP9701     0.2052
 48465 H2           7.3860   -12.0120    34.5610 H      9851  TIP9701     0.2052
 48466 OH2         25.5070    17.9520    25.2920 O.3    9852  TIP9702    -0.4105
 48467 H1          26.0060    17.4220    25.9140 H      9852  TIP9702     0.2052
 48468 H2          26.0630    17.9960    24.5150 H      9852  TIP9702     0.2052
 48469 OH2        -12.8210     2.2140    52.4100 O.3    9853  TIP9703    -0.4105
 48470 H1         -12.7420     1.8250    51.5390 H      9853  TIP9703     0.2052
 48471 H2         -12.0930     2.8330    52.4630 H      9853  TIP9703     0.2052
 48472 OH2        -31.2010    -7.1090   -35.3500 O.3    9854  TIP9704    -0.4105
 48473 H1         -31.5980    -7.9710   -35.4820 H      9854  TIP9704     0.2052
 48474 H2         -31.4410    -6.6120   -36.1320 H      9854  TIP9704     0.2052
 48475 OH2         13.4010    22.6220    23.6260 O.3    9855  TIP9705    -0.4105
 48476 H1          13.3610    22.9110    22.7140 H      9855  TIP9705     0.2052
 48477 H2          12.9450    21.7810    23.6320 H      9855  TIP9705     0.2052
 48478 OH2         10.8150    30.0000   -47.2770 O.3    9856  TIP9706    -0.4105
 48479 H1          10.5050    30.6210   -46.6180 H      9856  TIP9706     0.2052
 48480 H2          11.2350    29.3040   -46.7730 H      9856  TIP9706     0.2052
 48481 OH2         -0.1480   -29.5160    42.4240 O.3    9857  TIP9707    -0.4105
 48482 H1          -0.0020   -29.6600    41.4890 H      9857  TIP9707     0.2052
 48483 H2           0.0920   -28.6000    42.5660 H      9857  TIP9707     0.2052
 48484 OH2          8.9830   -16.1240   -44.7070 O.3    9858  TIP9708    -0.4105
 48485 H1           9.4270   -16.8820   -45.0860 H      9858  TIP9708     0.2052
 48486 H2           9.1610   -15.4100   -45.3190 H      9858  TIP9708     0.2052
 48487 OH2         11.5510     2.3580    42.7590 O.3    9859  TIP9709    -0.4105
 48488 H1          12.0140     1.7340    43.3170 H      9859  TIP9709     0.2052
 48489 H2          11.9740     3.1990    42.9370 H      9859  TIP9709     0.2052
 48490 OH2         26.2320     8.4180   -52.9950 O.3    9860  TIP9710    -0.4105
 48491 H1          25.7650     8.5550   -53.8190 H      9860  TIP9710     0.2052
 48492 H2          25.7260     8.9090   -52.3470 H      9860  TIP9710     0.2052
 48493 OH2         -7.2310   -26.2590   -43.7090 O.3    9861  TIP9711    -0.4105
 48494 H1          -6.6190   -25.7960   -43.1370 H      9861  TIP9711     0.2052
 48495 H2          -7.1320   -25.8340   -44.5610 H      9861  TIP9711     0.2052
 48496 OH2          6.6020   -27.2840   -36.2890 O.3    9862  TIP9712    -0.4105
 48497 H1           7.0660   -26.9710   -37.0660 H      9862  TIP9712     0.2052
 48498 H2           6.0700   -26.5390   -36.0110 H      9862  TIP9712     0.2052
 48499 OH2        -29.8680   -14.0940   -53.1040 O.3    9863  TIP9713    -0.4105
 48500 H1         -30.4540   -13.3810   -52.8500 H      9863  TIP9713     0.2052
 48501 H2         -29.2120   -13.6780   -53.6640 H      9863  TIP9713     0.2052
 48502 OH2        -25.9970   -13.4230    54.1490 O.3    9864  TIP9714    -0.4105
 48503 H1         -26.3370   -12.7050    53.6150 H      9864  TIP9714     0.2052
 48504 H2         -25.0800   -13.5030    53.8870 H      9864  TIP9714     0.2052
 48505 OH2        -23.9690    -1.3680   -23.7620 O.3    9865  TIP9715    -0.4105
 48506 H1         -23.2360    -1.8330   -23.3590 H      9865  TIP9715     0.2052
 48507 H2         -24.6520    -2.0320   -23.8560 H      9865  TIP9715     0.2052
 48508 OH2         30.1940   -22.4690    21.0030 O.3    9866  TIP9716    -0.4105
 48509 H1          30.4190   -21.5410    21.0730 H      9866  TIP9716     0.2052
 48510 H2          30.5930   -22.8710    21.7740 H      9866  TIP9716     0.2052
 48511 OH2        -19.4490   -24.7060    29.9380 O.3    9867  TIP9717    -0.4105
 48512 H1         -18.9550   -25.3480    30.4470 H      9867  TIP9717     0.2052
 48513 H2         -18.8080   -24.3350    29.3320 H      9867  TIP9717     0.2052
 48514 OH2         14.6760     7.2620   -31.0510 O.3    9868  TIP9718    -0.4105
 48515 H1          14.4560     7.6380   -31.9040 H      9868  TIP9718     0.2052
 48516 H2          15.4550     7.7430   -30.7710 H      9868  TIP9718     0.2052
 48517 OH2        -27.0350   -21.4740   -33.8080 O.3    9869  TIP9719    -0.4105
 48518 H1         -27.7030   -21.9010   -34.3440 H      9869  TIP9719     0.2052
 48519 H2         -27.0730   -21.9320   -32.9680 H      9869  TIP9719     0.2052
 48520 OH2          9.2470    26.9930    42.0120 O.3    9870  TIP9720    -0.4105
 48521 H1           9.3710    26.0500    42.1200 H      9870  TIP9720     0.2052
 48522 H2           8.4670    27.1930    42.5290 H      9870  TIP9720     0.2052
 48523 OH2        -16.3750    32.8260    51.7320 O.3    9871  TIP9721    -0.4105
 48524 H1         -15.6930    33.3150    51.2710 H      9871  TIP9721     0.2052
 48525 H2         -15.9710    32.5780    52.5640 H      9871  TIP9721     0.2052
 48526 OH2        -12.2360    16.3500    26.1840 O.3    9872  TIP9722    -0.4105
 48527 H1         -12.4910    17.1260    26.6840 H      9872  TIP9722     0.2052
 48528 H2         -12.9570    15.7340    26.3140 H      9872  TIP9722     0.2052
 48529 OH2        -18.6890   -28.1200   -48.1980 O.3    9873  TIP9723    -0.4105
 48530 H1         -18.3890   -28.3260   -49.0840 H      9873  TIP9723     0.2052
 48531 H2         -17.9000   -28.1760   -47.6590 H      9873  TIP9723     0.2052
 48532 OH2         17.6490    24.9910    30.9580 O.3    9874  TIP9724    -0.4105
 48533 H1          18.1720    24.7490    31.7220 H      9874  TIP9724     0.2052
 48534 H2          17.0840    24.2330    30.8040 H      9874  TIP9724     0.2052
 48535 OH2          7.1030   -31.0670    52.6940 O.3    9875  TIP9725    -0.4105
 48536 H1           6.6230   -31.8760    52.5170 H      9875  TIP9725     0.2052
 48537 H2           7.0070   -30.5520    51.8930 H      9875  TIP9725     0.2052
 48538 OH2        -19.3210    13.6770    35.4150 O.3    9876  TIP9726    -0.4105
 48539 H1         -19.8930    12.9900    35.0720 H      9876  TIP9726     0.2052
 48540 H2         -19.3740    14.3790    34.7660 H      9876  TIP9726     0.2052
 48541 OH2        -25.5060   -30.3910   -27.7100 O.3    9877  TIP9727    -0.4105
 48542 H1         -26.0050   -30.0860   -26.9520 H      9877  TIP9727     0.2052
 48543 H2         -24.5930   -30.3490   -27.4280 H      9877  TIP9727     0.2052
 48544 OH2         26.0450    -8.0620    41.4220 O.3    9878  TIP9728    -0.4105
 48545 H1          25.7030    -7.7490    40.5840 H      9878  TIP9728     0.2052
 48546 H2          26.7770    -7.4770    41.6160 H      9878  TIP9728     0.2052
 48547 OH2        -10.7700   -31.3840    25.3440 O.3    9879  TIP9729    -0.4105
 48548 H1         -10.6170   -30.4550    25.5200 H      9879  TIP9729     0.2052
 48549 H2         -10.4550   -31.5140    24.4500 H      9879  TIP9729     0.2052
 48550 OH2         11.9130   -18.6730   -52.6040 O.3    9880  TIP9730    -0.4105
 48551 H1          11.0410   -18.2780   -52.5960 H      9880  TIP9730     0.2052
 48552 H2          12.4160   -18.1320   -53.2120 H      9880  TIP9730     0.2052
 48553 OH2         10.7110     2.3510   -51.2480 O.3    9881  TIP9731    -0.4105
 48554 H1          10.5200     2.9010   -52.0070 H      9881  TIP9731     0.2052
 48555 H2          11.5010     2.7350   -50.8670 H      9881  TIP9731     0.2052
 48556 OH2        -13.1280     2.7340   -37.8990 O.3    9882  TIP9732    -0.4105
 48557 H1         -13.7670     2.7910   -37.1880 H      9882  TIP9732     0.2052
 48558 H2         -12.9490     1.7980   -37.9850 H      9882  TIP9732     0.2052
 48559 OH2          8.9960    13.5790    43.1000 O.3    9883  TIP9733    -0.4105
 48560 H1           8.4460    14.1260    43.6620 H      9883  TIP9733     0.2052
 48561 H2           8.7620    12.6820    43.3360 H      9883  TIP9733     0.2052
 48562 OH2        -25.9570   -17.0800   -27.9300 O.3    9884  TIP9734    -0.4105
 48563 H1         -26.8460   -17.1490   -27.5800 H      9884  TIP9734     0.2052
 48564 H2         -26.0650   -17.1670   -28.8770 H      9884  TIP9734     0.2052
 48565 OH2         32.8540    17.3560    26.5640 O.3    9885  TIP9735    -0.4105
 48566 H1          32.1560    17.9220    26.8920 H      9885  TIP9735     0.2052
 48567 H2          32.7240    17.3400    25.6150 H      9885  TIP9735     0.2052
 48568 OH2        -17.8780    15.9470   -34.3490 O.3    9886  TIP9736    -0.4105
 48569 H1         -18.5100    16.0490   -33.6380 H      9886  TIP9736     0.2052
 48570 H2         -18.0910    15.0990   -34.7390 H      9886  TIP9736     0.2052
 48571 OH2         -1.4630    28.1840    23.3220 O.3    9887  TIP9737    -0.4105
 48572 H1          -1.5530    27.7090    22.4950 H      9887  TIP9737     0.2052
 48573 H2          -0.8030    28.8540    23.1430 H      9887  TIP9737     0.2052
 48574 OH2        -10.0920    13.4630   -31.1770 O.3    9888  TIP9738    -0.4105
 48575 H1          -9.9950    14.3030   -31.6250 H      9888  TIP9738     0.2052
 48576 H2         -10.8130    13.0290   -31.6340 H      9888  TIP9738     0.2052
 48577 OH2         -1.4670   -19.0130    48.9960 O.3    9889  TIP9739    -0.4105
 48578 H1          -1.5300   -19.9570    49.1360 H      9889  TIP9739     0.2052
 48579 H2          -2.0950   -18.6360    49.6120 H      9889  TIP9739     0.2052
 48580 OH2        -25.9260    -6.2330    52.8580 O.3    9890  TIP9740    -0.4105
 48581 H1         -26.8710    -6.1510    52.9850 H      9890  TIP9740     0.2052
 48582 H2         -25.6760    -6.9860    53.3920 H      9890  TIP9740     0.2052
 48583 OH2        -28.2000    28.1540    39.6860 O.3    9891  TIP9741    -0.4105
 48584 H1         -29.0060    27.7380    39.3810 H      9891  TIP9741     0.2052
 48585 H2         -27.9310    27.6300    40.4420 H      9891  TIP9741     0.2052
 48586 OH2         24.7830    15.2660   -13.8490 O.3    9892  TIP9742    -0.4105
 48587 H1          24.0350    15.4600   -13.2830 H      9892  TIP9742     0.2052
 48588 H2          24.9370    14.3290   -13.7300 H      9892  TIP9742     0.2052
 48589 OH2          7.9470     2.2150    33.1580 O.3    9893  TIP9743    -0.4105
 48590 H1           8.2880     1.3350    32.9940 H      9893  TIP9743     0.2052
 48591 H2           8.7240     2.7730    33.1860 H      9893  TIP9743     0.2052
 48592 OH2          3.9380    17.6490    43.9090 O.3    9894  TIP9744    -0.4105
 48593 H1           4.7820    17.6590    43.4580 H      9894  TIP9744     0.2052
 48594 H2           4.1480    17.3810    44.8040 H      9894  TIP9744     0.2052
 48595 OH2         -4.3590   -15.9990   -34.8490 O.3    9895  TIP9745    -0.4105
 48596 H1          -5.2800   -15.7370   -34.8430 H      9895  TIP9745     0.2052
 48597 H2          -4.1540   -16.1320   -35.7750 H      9895  TIP9745     0.2052
 48598 OH2         -7.0450   -27.4560    46.8230 O.3    9896  TIP9746    -0.4105
 48599 H1          -6.2100   -27.0900    46.5310 H      9896  TIP9746     0.2052
 48600 H2          -7.7000   -26.8220    46.5310 H      9896  TIP9746     0.2052
 48601 OH2         31.4370    -5.1250    21.2400 O.3    9897  TIP9747    -0.4105
 48602 H1          30.8560    -4.5470    21.7340 H      9897  TIP9747     0.2052
 48603 H2          30.8740    -5.5150    20.5710 H      9897  TIP9747     0.2052
 48604 OH2          3.2040     6.1670    -6.5920 O.3    9898  TIP9748    -0.4105
 48605 H1           4.0510     6.2950    -6.1650 H      9898  TIP9748     0.2052
 48606 H2           3.4220     5.9310    -7.4930 H      9898  TIP9748     0.2052
 48607 OH2         -1.1940   -30.5430    47.1960 O.3    9899  TIP9749    -0.4105
 48608 H1          -1.2260   -30.8760    46.2990 H      9899  TIP9749     0.2052
 48609 H2          -1.2750   -31.3240    47.7440 H      9899  TIP9749     0.2052
 48610 OH2         -0.8380    -6.0910   -46.5140 O.3    9900  TIP9750    -0.4105
 48611 H1          -1.2420    -5.7310   -47.3040 H      9900  TIP9750     0.2052
 48612 H2          -1.5670    -6.2100   -45.9050 H      9900  TIP9750     0.2052
 48613 OH2          3.6580     1.1450   -19.3720 O.3    9901  TIP9751    -0.4105
 48614 H1           4.2620     0.6040   -18.8630 H      9901  TIP9751     0.2052
 48615 H2           3.6000     1.9650   -18.8820 H      9901  TIP9751     0.2052
 48616 OH2         32.0290    24.6470    34.0490 O.3    9902  TIP9752    -0.4105
 48617 H1          32.0010    23.7080    34.2370 H      9902  TIP9752     0.2052
 48618 H2          31.2840    24.7980    33.4680 H      9902  TIP9752     0.2052
 48619 OH2         24.4250   -26.1150    36.3410 O.3    9903  TIP9753    -0.4105
 48620 H1          25.3470   -26.3480    36.2360 H      9903  TIP9753     0.2052
 48621 H2          24.4410   -25.2190    36.6790 H      9903  TIP9753     0.2052
 48622 OH2         25.8910    31.6930    46.0940 O.3    9904  TIP9754    -0.4105
 48623 H1          26.4670    30.9450    45.9380 H      9904  TIP9754     0.2052
 48624 H2          26.3190    32.1830    46.7960 H      9904  TIP9754     0.2052
 48625 OH2        -14.0440    18.9240   -41.4850 O.3    9905  TIP9755    -0.4105
 48626 H1         -14.1710    19.5540   -42.1940 H      9905  TIP9755     0.2052
 48627 H2         -13.9210    19.4630   -40.7040 H      9905  TIP9755     0.2052
 48628 OH2         26.6200    14.8000   -54.7100 O.3    9906  TIP9756    -0.4105
 48629 H1          25.9690    14.3470   -54.1750 H      9906  TIP9756     0.2052
 48630 H2          27.4370    14.7120   -54.2180 H      9906  TIP9756     0.2052
 48631 OH2        -10.0560     0.0170    30.5390 O.3    9907  TIP9757    -0.4105
 48632 H1          -9.8750     0.6130    29.8120 H      9907  TIP9757     0.2052
 48633 H2         -10.9410    -0.3050    30.3710 H      9907  TIP9757     0.2052
 48634 OH2         -2.8400    20.1890   -34.4150 O.3    9908  TIP9758    -0.4105
 48635 H1          -3.4960    20.8630   -34.5920 H      9908  TIP9758     0.2052
 48636 H2          -2.2070    20.6160   -33.8370 H      9908  TIP9758     0.2052
 48637 OH2         31.1650     5.7370   -28.4740 O.3    9909  TIP9759    -0.4105
 48638 H1          32.0110     5.3610   -28.7180 H      9909  TIP9759     0.2052
 48639 H2          30.8420     5.1680   -27.7750 H      9909  TIP9759     0.2052
 48640 OH2         -6.4750    11.3200    30.4850 O.3    9910  TIP9760    -0.4105
 48641 H1          -6.6880    11.5500    31.3890 H      9910  TIP9760     0.2052
 48642 H2          -5.6650    10.8130    30.5510 H      9910  TIP9760     0.2052
 48643 OH2         28.1370   -18.6090   -50.1690 O.3    9911  TIP9761    -0.4105
 48644 H1          28.4710   -17.7160   -50.2480 H      9911  TIP9761     0.2052
 48645 H2          27.8680   -18.8450   -51.0570 H      9911  TIP9761     0.2052
 48646 OH2         15.6690   -13.7160    49.3690 O.3    9912  TIP9762    -0.4105
 48647 H1          15.5830   -14.6020    49.0160 H      9912  TIP9762     0.2052
 48648 H2          16.5240   -13.7110    49.8000 H      9912  TIP9762     0.2052
 48649 OH2         32.9760     7.4420   -41.5480 O.3    9913  TIP9763    -0.4105
 48650 H1          33.3400     6.6820   -41.0940 H      9913  TIP9763     0.2052
 48651 H2          32.0480     7.4410   -41.3140 H      9913  TIP9763     0.2052
 48652 OH2          7.7510   -29.7350   -43.1270 O.3    9914  TIP9764    -0.4105
 48653 H1           8.0960   -30.5860   -43.4000 H      9914  TIP9764     0.2052
 48654 H2           6.8210   -29.7700   -43.3510 H      9914  TIP9764     0.2052
 48655 OH2         14.5010   -25.5220   -22.7260 O.3    9915  TIP9765    -0.4105
 48656 H1          13.5620   -25.4780   -22.9060 H      9915  TIP9765     0.2052
 48657 H2          14.5600   -25.8820   -21.8410 H      9915  TIP9765     0.2052
 48658 OH2          0.8860   -15.8100   -48.4120 O.3    9916  TIP9766    -0.4105
 48659 H1           0.2040   -15.5660   -47.7860 H      9916  TIP9766     0.2052
 48660 H2           1.4070   -15.0150   -48.5220 H      9916  TIP9766     0.2052
 48661 OH2        -31.4790    31.5590   -33.0160 O.3    9917  TIP9767    -0.4105
 48662 H1         -30.8250    31.4990   -33.7120 H      9917  TIP9767     0.2052
 48663 H2         -32.2910    31.7880   -33.4680 H      9917  TIP9767     0.2052
 48664 OH2        -11.4060   -29.7280   -36.4960 O.3    9918  TIP9768    -0.4105
 48665 H1         -11.8430   -29.4900   -35.6790 H      9918  TIP9768     0.2052
 48666 H2         -12.1040   -29.7280   -37.1510 H      9918  TIP9768     0.2052
 48667 OH2         -3.7260    30.2020    37.5980 O.3    9919  TIP9769    -0.4105
 48668 H1          -4.1930    29.5870    38.1630 H      9919  TIP9769     0.2052
 48669 H2          -3.7840    29.8170    36.7240 H      9919  TIP9769     0.2052
 48670 OH2         20.7500   -27.2770    52.2750 O.3    9920  TIP9770    -0.4105
 48671 H1          21.6120   -26.9720    51.9900 H      9920  TIP9770     0.2052
 48672 H2          20.9380   -27.9930    52.8810 H      9920  TIP9770     0.2052
 48673 OH2         15.0950    -8.7960    42.5220 O.3    9921  TIP9771    -0.4105
 48674 H1          14.7240    -8.0530    42.0450 H      9921  TIP9771     0.2052
 48675 H2          14.8940    -8.6170    43.4400 H      9921  TIP9771     0.2052
 48676 OH2         21.2700    -6.1630    40.0660 O.3    9922  TIP9772    -0.4105
 48677 H1          21.9630    -6.5600    40.5940 H      9922  TIP9772     0.2052
 48678 H2          20.4880    -6.6770    40.2710 H      9922  TIP9772     0.2052
 48679 OH2        -27.1810   -28.4230    42.7060 O.3    9923  TIP9773    -0.4105
 48680 H1         -26.8040   -29.2870    42.5390 H      9923  TIP9773     0.2052
 48681 H2         -26.9060   -27.8930    41.9580 H      9923  TIP9773     0.2052
 48682 OH2         29.7770   -11.8680    34.0930 O.3    9924  TIP9774    -0.4105
 48683 H1          29.2120   -12.5920    34.3620 H      9924  TIP9774     0.2052
 48684 H2          30.1700   -11.5550    34.9070 H      9924  TIP9774     0.2052
 48685 OH2        -11.5590    -8.0840   -35.3590 O.3    9925  TIP9775    -0.4105
 48686 H1         -12.3220    -8.5120   -34.9710 H      9925  TIP9775     0.2052
 48687 H2         -10.8600    -8.7360   -35.2980 H      9925  TIP9775     0.2052
 48688 OH2        -24.6620    -0.8690   -54.8930 O.3    9926  TIP9776    -0.4105
 48689 H1         -24.1630    -1.6440   -55.1510 H      9926  TIP9776     0.2052
 48690 H2         -25.4010    -1.2160   -54.3930 H      9926  TIP9776     0.2052
 48691 OH2          0.9770    -5.4430   -22.3100 O.3    9927  TIP9777    -0.4105
 48692 H1           1.8170    -5.0460   -22.5420 H      9927  TIP9777     0.2052
 48693 H2           1.1330    -5.8540   -21.4600 H      9927  TIP9777     0.2052
 48694 OH2          5.5350    30.3310    25.1710 O.3    9928  TIP9778    -0.4105
 48695 H1           5.9220    29.5830    24.7160 H      9928  TIP9778     0.2052
 48696 H2           4.6120    30.3160    24.9160 H      9928  TIP9778     0.2052
 48697 OH2          8.8480     6.8920    49.3910 O.3    9929  TIP9779    -0.4105
 48698 H1           9.6390     7.4260    49.4670 H      9929  TIP9779     0.2052
 48699 H2           8.1350     7.5270    49.3230 H      9929  TIP9779     0.2052
 48700 OH2        -32.5410     3.0390    31.7920 O.3    9930  TIP9780    -0.4105
 48701 H1         -32.1110     2.3950    31.2290 H      9930  TIP9780     0.2052
 48702 H2         -31.8690     3.7000    31.9580 H      9930  TIP9780     0.2052
 48703 OH2        -19.6250   -22.7150    16.5030 O.3    9931  TIP9781    -0.4105
 48704 H1         -19.9440   -23.1880    17.2710 H      9931  TIP9781     0.2052
 48705 H2         -18.9840   -23.3040    16.1060 H      9931  TIP9781     0.2052
 48706 OH2         28.5840     1.5550   -51.4850 O.3    9932  TIP9782    -0.4105
 48707 H1          27.7520     2.0170   -51.5860 H      9932  TIP9782     0.2052
 48708 H2          29.0510     2.0480   -50.8090 H      9932  TIP9782     0.2052
 48709 OH2        -23.9690     0.2190    32.8100 O.3    9933  TIP9783    -0.4105
 48710 H1         -23.0540    -0.0270    32.9480 H      9933  TIP9783     0.2052
 48711 H2         -24.4340    -0.6150    32.7430 H      9933  TIP9783     0.2052
 48712 OH2         11.3070   -23.1700    30.9850 O.3    9934  TIP9784    -0.4105
 48713 H1          11.9220   -23.2480    30.2550 H      9934  TIP9784     0.2052
 48714 H2          11.3940   -22.2610    31.2740 H      9934  TIP9784     0.2052
 48715 OH2        -32.9760    14.5690    27.1560 O.3    9935  TIP9785    -0.4105
 48716 H1         -33.1910    15.4990    27.0940 H      9935  TIP9785     0.2052
 48717 H2         -32.9840    14.3820    28.0950 H      9935  TIP9785     0.2052
 48718 OH2         14.8990    19.4780    36.0450 O.3    9936  TIP9786    -0.4105
 48719 H1          15.3200    20.3370    36.0160 H      9936  TIP9786     0.2052
 48720 H2          13.9850    19.6510    35.8180 H      9936  TIP9786     0.2052
 48721 OH2        -19.0290   -29.5820    19.0070 O.3    9937  TIP9787    -0.4105
 48722 H1         -18.2260   -29.7100    19.5120 H      9937  TIP9787     0.2052
 48723 H2         -19.5980   -29.0730    19.5850 H      9937  TIP9787     0.2052
 48724 OH2        -32.0730   -31.0610    27.8880 O.3    9938  TIP9788    -0.4105
 48725 H1         -32.3320   -30.1470    28.0010 H      9938  TIP9788     0.2052
 48726 H2         -32.8650   -31.5610    28.0840 H      9938  TIP9788     0.2052
 48727 OH2         31.7190   -11.3510   -16.8480 O.3    9939  TIP9789    -0.4105
 48728 H1          31.3680   -12.2400   -16.9060 H      9939  TIP9789     0.2052
 48729 H2          30.9980   -10.8310   -16.4950 H      9939  TIP9789     0.2052
 48730 OH2         31.4560     0.8950   -35.3720 O.3    9940  TIP9790    -0.4105
 48731 H1          32.4020     0.8840   -35.2270 H      9940  TIP9790     0.2052
 48732 H2          31.1400     1.6260   -34.8420 H      9940  TIP9790     0.2052
 48733 OH2        -10.3150   -20.6730   -35.4330 O.3    9941  TIP9791    -0.4105
 48734 H1         -10.8730   -20.0800   -34.9300 H      9941  TIP9791     0.2052
 48735 H2         -10.3910   -20.3660   -36.3360 H      9941  TIP9791     0.2052
 48736 OH2         16.2810   -22.7550    51.5410 O.3    9942  TIP9792    -0.4105
 48737 H1          15.3390   -22.7130    51.3770 H      9942  TIP9792     0.2052
 48738 H2          16.6260   -21.9420    51.1730 H      9942  TIP9792     0.2052
 48739 OH2          5.9720    20.8830    28.1600 O.3    9943  TIP9793    -0.4105
 48740 H1           6.4680    21.6560    27.8900 H      9943  TIP9793     0.2052
 48741 H2           6.4030    20.5900    28.9630 H      9943  TIP9793     0.2052
 48742 OH2        -18.0080   -23.3190   -27.0670 O.3    9944  TIP9794    -0.4105
 48743 H1         -18.5420   -23.1880   -27.8500 H      9944  TIP9794     0.2052
 48744 H2         -17.6020   -22.4660   -26.9080 H      9944  TIP9794     0.2052
 48745 OH2         31.1800    -8.2920   -28.7020 O.3    9945  TIP9795    -0.4105
 48746 H1          30.8690    -9.0430   -29.2080 H      9945  TIP9795     0.2052
 48747 H2          30.5940    -7.5770   -28.9500 H      9945  TIP9795     0.2052
 48748 OH2        -31.8010   -13.6550   -48.8330 O.3    9946  TIP9796    -0.4105
 48749 H1         -32.3460   -14.4260   -48.6770 H      9946  TIP9796     0.2052
 48750 H2         -31.0920   -13.9720   -49.3920 H      9946  TIP9796     0.2052
 48751 OH2         -2.7070     7.9010   -24.9330 O.3    9947  TIP9797    -0.4105
 48752 H1          -3.6570     7.8050   -24.8640 H      9947  TIP9797     0.2052
 48753 H2          -2.3720     7.5870   -24.0920 H      9947  TIP9797     0.2052
 48754 OH2         24.2460    26.9680   -30.0800 O.3    9948  TIP9798    -0.4105
 48755 H1          24.5890    26.8280   -29.1970 H      9948  TIP9798     0.2052
 48756 H2          24.5180    26.1910   -30.5690 H      9948  TIP9798     0.2052
 48757 OH2        -15.0680   -24.0640    29.1590 O.3    9949  TIP9799    -0.4105
 48758 H1         -14.3560   -24.0910    28.5200 H      9949  TIP9799     0.2052
 48759 H2         -14.9350   -23.2420    29.6310 H      9949  TIP9799     0.2052
 48760 OH2        -11.0340    29.5240   -19.1190 O.3    9950  TIP9800    -0.4105
 48761 H1         -11.2450    28.5910   -19.1140 H      9950  TIP9800     0.2052
 48762 H2         -10.4570    29.6360   -19.8750 H      9950  TIP9800     0.2052
 48763 OH2         19.9960    -3.1530   -23.0330 O.3    9951  TIP9801    -0.4105
 48764 H1          19.7510    -2.2790   -22.7300 H      9951  TIP9801     0.2052
 48765 H2          20.6960    -3.4250   -22.4390 H      9951  TIP9801     0.2052
 48766 OH2        -24.8710    11.9780    23.2850 O.3    9952  TIP9802    -0.4105
 48767 H1         -24.4900    12.1630    22.4270 H      9952  TIP9802     0.2052
 48768 H2         -24.7090    12.7720    23.7950 H      9952  TIP9802     0.2052
 48769 OH2         18.7620   -18.5030   -52.8870 O.3    9953  TIP9803    -0.4105
 48770 H1          17.8250   -18.6140   -53.0500 H      9953  TIP9803     0.2052
 48771 H2          19.0170   -17.7680   -53.4440 H      9953  TIP9803     0.2052
 48772 OH2        -28.4870    -8.3040    46.8190 O.3    9954  TIP9804    -0.4105
 48773 H1         -28.8710    -9.1710    46.9490 H      9954  TIP9804     0.2052
 48774 H2         -28.2100    -8.0320    47.6940 H      9954  TIP9804     0.2052
 48775 OH2        -18.2750    -0.3130   -17.2730 O.3    9955  TIP9805    -0.4105
 48776 H1         -18.6900    -1.0870   -17.6530 H      9955  TIP9805     0.2052
 48777 H2         -19.0060     0.2410   -17.0010 H      9955  TIP9805     0.2052
 48778 OH2         11.6690   -13.8290   -48.0730 O.3    9956  TIP9806    -0.4105
 48779 H1          12.5990   -13.7720   -47.8510 H      9956  TIP9806     0.2052
 48780 H2          11.4830   -13.0140   -48.5380 H      9956  TIP9806     0.2052
 48781 OH2         15.8450    -8.3900   -41.6310 O.3    9957  TIP9807    -0.4105
 48782 H1          15.8130    -9.3310   -41.4580 H      9957  TIP9807     0.2052
 48783 H2          16.6480    -8.0940   -41.2020 H      9957  TIP9807     0.2052
 48784 OH2          9.7260    27.5070   -51.2930 O.3    9958  TIP9808    -0.4105
 48785 H1           9.8900    28.2140   -51.9180 H      9958  TIP9808     0.2052
 48786 H2           9.5060    27.9550   -50.4760 H      9958  TIP9808     0.2052
 48787 OH2        -25.3760    -1.1060   -51.1140 O.3    9959  TIP9809    -0.4105
 48788 H1         -25.6270    -0.2850   -50.6900 H      9959  TIP9809     0.2052
 48789 H2         -24.5210    -0.9230   -51.5050 H      9959  TIP9809     0.2052
 48790 OH2         13.5980    21.3740   -40.0670 O.3    9960  TIP9810    -0.4105
 48791 H1          13.6530    22.1230   -40.6610 H      9960  TIP9810     0.2052
 48792 H2          14.1070    21.6380   -39.3010 H      9960  TIP9810     0.2052
 48793 OH2         28.2660     9.5790   -18.8770 O.3    9961  TIP9811    -0.4105
 48794 H1          27.9170     8.9340   -19.4920 H      9961  TIP9811     0.2052
 48795 H2          28.1290    10.4220   -19.3100 H      9961  TIP9811     0.2052
 48796 OH2         26.5170    17.1210   -42.7610 O.3    9962  TIP9812    -0.4105
 48797 H1          26.7170    18.0560   -42.8070 H      9962  TIP9812     0.2052
 48798 H2          26.9920    16.8120   -41.9900 H      9962  TIP9812     0.2052
 48799 OH2         23.5460     3.2380   -42.6120 O.3    9963  TIP9813    -0.4105
 48800 H1          22.8620     2.7410   -43.0610 H      9963  TIP9813     0.2052
 48801 H2          24.2840     3.2340   -43.2210 H      9963  TIP9813     0.2052
 48802 OH2          1.7120    -2.0750    44.0660 O.3    9964  TIP9814    -0.4105
 48803 H1           1.5890    -3.0190    43.9630 H      9964  TIP9814     0.2052
 48804 H2           1.7480    -1.9400    45.0130 H      9964  TIP9814     0.2052
 48805 OH2         27.2460     3.9400    53.7260 O.3    9965  TIP9815    -0.4105
 48806 H1          26.4660     3.8610    53.1760 H      9965  TIP9815     0.2052
 48807 H2          27.9740     3.9860    53.1060 H      9965  TIP9815     0.2052
 48808 OH2        -19.2830   -32.7400   -32.8220 O.3    9966  TIP9816    -0.4105
 48809 H1         -18.6020   -32.8070   -33.4910 H      9966  TIP9816     0.2052
 48810 H2         -19.6470   -33.6230   -32.7590 H      9966  TIP9816     0.2052
 48811 OH2        -26.4790    18.8420   -45.6250 O.3    9967  TIP9817    -0.4105
 48812 H1         -27.4230    18.6980   -45.5580 H      9967  TIP9817     0.2052
 48813 H2         -26.0900    18.0980   -45.1650 H      9967  TIP9817     0.2052
 48814 OH2        -28.8600    19.9670    49.4160 O.3    9968  TIP9818    -0.4105
 48815 H1         -28.0760    19.4980    49.7010 H      9968  TIP9818     0.2052
 48816 H2         -28.5600    20.8620    49.2550 H      9968  TIP9818     0.2052
 48817 OH2        -23.9470    -3.0100    27.6890 O.3    9969  TIP9819    -0.4105
 48818 H1         -24.1920    -2.1500    28.0310 H      9969  TIP9819     0.2052
 48819 H2         -23.8790    -2.8820    26.7430 H      9969  TIP9819     0.2052
 48820 OH2         13.7870    27.4250    44.5140 O.3    9970  TIP9820    -0.4105
 48821 H1          14.5880    27.4850    43.9940 H      9970  TIP9820     0.2052
 48822 H2          13.4390    28.3170    44.5210 H      9970  TIP9820     0.2052
 48823 OH2         -0.7750    -1.1430    46.2100 O.3    9971  TIP9821    -0.4105
 48824 H1          -0.9230    -2.0840    46.3000 H      9971  TIP9821     0.2052
 48825 H2           0.0670    -0.9910    46.6400 H      9971  TIP9821     0.2052
 48826 OH2        -19.1470    -3.8360   -47.7430 O.3    9972  TIP9822    -0.4105
 48827 H1         -19.3920    -4.2940   -48.5480 H      9972  TIP9822     0.2052
 48828 H2         -18.2390    -3.5710   -47.8840 H      9972  TIP9822     0.2052
 48829 OH2         -9.0740    -2.8060    46.8680 O.3    9973  TIP9823    -0.4105
 48830 H1          -8.8930    -2.6730    45.9380 H      9973  TIP9823     0.2052
 48831 H2          -9.7830    -2.1940    47.0640 H      9973  TIP9823     0.2052
 48832 OH2        -14.3650    -4.2250    50.7440 O.3    9974  TIP9824    -0.4105
 48833 H1         -13.5530    -4.2780    51.2490 H      9974  TIP9824     0.2052
 48834 H2         -15.0270    -4.6180    51.3120 H      9974  TIP9824     0.2052
 48835 OH2        -16.1460    -1.1880    44.8640 O.3    9975  TIP9825    -0.4105
 48836 H1         -15.6640    -0.7980    44.1350 H      9975  TIP9825     0.2052
 48837 H2         -16.8290    -1.7120    44.4460 H      9975  TIP9825     0.2052
 48838 OH2         28.5300    -4.5020   -46.0290 O.3    9976  TIP9826    -0.4105
 48839 H1          28.3880    -3.8090   -45.3830 H      9976  TIP9826     0.2052
 48840 H2          29.3170    -4.2310   -46.5020 H      9976  TIP9826     0.2052
 48841 OH2         14.6550   -10.0010   -28.2480 O.3    9977  TIP9827    -0.4105
 48842 H1          14.5620   -10.3900   -27.3790 H      9977  TIP9827     0.2052
 48843 H2          13.7580    -9.9190   -28.5720 H      9977  TIP9827     0.2052
 48844 OH2         11.1130   -25.7780   -29.9820 O.3    9978  TIP9828    -0.4105
 48845 H1          10.9250   -26.1250   -30.8540 H      9978  TIP9828     0.2052
 48846 H2          11.7070   -25.0440   -30.1380 H      9978  TIP9828     0.2052
 48847 OH2        -20.0680    32.1150    35.7640 O.3    9979  TIP9829    -0.4105
 48848 H1         -19.5890    32.2560    36.5810 H      9979  TIP9829     0.2052
 48849 H2         -19.3900    31.9050    35.1210 H      9979  TIP9829     0.2052
 48850 OH2         17.2150     3.2140   -38.8820 O.3    9980  TIP9830    -0.4105
 48851 H1          17.3300     2.4870   -39.4940 H      9980  TIP9830     0.2052
 48852 H2          17.5890     2.8970   -38.0600 H      9980  TIP9830     0.2052
 48853 OH2         21.6040    -7.7340   -18.3380 O.3    9981  TIP9831    -0.4105
 48854 H1          21.7250    -6.9850   -18.9220 H      9981  TIP9831     0.2052
 48855 H2          20.6970    -8.0050   -18.4800 H      9981  TIP9831     0.2052
 48856 OH2        -30.4030   -27.2130    15.0240 O.3    9982  TIP9832    -0.4105
 48857 H1         -29.5500   -27.0740    14.6110 H      9982  TIP9832     0.2052
 48858 H2         -30.4460   -26.5520    15.7140 H      9982  TIP9832     0.2052
 48859 OH2        -31.1420    25.2040    51.4610 O.3    9983  TIP9833    -0.4105
 48860 H1         -31.6310    24.7870    50.7510 H      9983  TIP9833     0.2052
 48861 H2         -30.9520    26.0840    51.1370 H      9983  TIP9833     0.2052
 48862 OH2        -21.4380    -5.5510   -26.0420 O.3    9984  TIP9834    -0.4105
 48863 H1         -21.1480    -4.7640   -26.5020 H      9984  TIP9834     0.2052
 48864 H2         -21.0920    -6.2750   -26.5650 H      9984  TIP9834     0.2052
 48865 OH2        -24.4190    -4.3390   -53.6980 O.3    9985  TIP9835    -0.4105
 48866 H1         -24.2860    -5.2790   -53.5760 H      9985  TIP9835     0.2052
 48867 H2         -23.9030    -4.1230   -54.4750 H      9985  TIP9835     0.2052
 48868 OH2         13.6240    -0.2540    51.2890 O.3    9986  TIP9836    -0.4105
 48869 H1          12.9950     0.4410    51.0980 H      9986  TIP9836     0.2052
 48870 H2          14.3810     0.2030    51.6580 H      9986  TIP9836     0.2052
 48871 OH2        -21.6410   -18.4910    17.7800 O.3    9987  TIP9837    -0.4105
 48872 H1         -21.3250   -19.0330    17.0570 H      9987  TIP9837     0.2052
 48873 H2         -21.4480   -17.5930    17.5100 H      9987  TIP9837     0.2052
 48874 OH2         -5.3650   -11.9720   -18.0330 O.3    9988  TIP9838    -0.4105
 48875 H1          -5.7260   -12.2720   -18.8670 H      9988  TIP9838     0.2052
 48876 H2          -5.5380   -11.0310   -18.0210 H      9988  TIP9838     0.2052
 48877 OH2         -2.0200     3.1840   -38.1660 O.3    9989  TIP9839    -0.4105
 48878 H1          -1.1200     3.1790   -38.4920 H      9989  TIP9839     0.2052
 48879 H2          -2.1490     4.0730   -37.8340 H      9989  TIP9839     0.2052
 48880 OH2          4.8990   -23.4970   -37.7020 O.3    9990  TIP9840    -0.4105
 48881 H1           5.6900   -24.0240   -37.8160 H      9990  TIP9840     0.2052
 48882 H2           5.2130   -22.6690   -37.3380 H      9990  TIP9840     0.2052
 48883 OH2         25.2630    21.1600   -26.9580 O.3    9991  TIP9841    -0.4105
 48884 H1          25.0090    21.2020   -27.8800 H      9991  TIP9841     0.2052
 48885 H2          24.5680    20.6520   -26.5400 H      9991  TIP9841     0.2052
 48886 OH2          1.1300    32.4680   -38.9730 O.3    9992  TIP9842    -0.4105
 48887 H1           1.2600    33.1370   -39.6440 H      9992  TIP9842     0.2052
 48888 H2           1.8580    32.5930   -38.3640 H      9992  TIP9842     0.2052
 48889 OH2         -5.6720    -6.4370    28.0250 O.3    9993  TIP9843    -0.4105
 48890 H1          -5.7550    -6.6810    28.9470 H      9993  TIP9843     0.2052
 48891 H2          -6.2120    -7.0740    27.5580 H      9993  TIP9843     0.2052
 48892 OH2         -5.6810     0.7680    54.5600 O.3    9994  TIP9844    -0.4105
 48893 H1          -4.8810     0.9160    55.0650 H      9994  TIP9844     0.2052
 48894 H2          -5.5040    -0.0290    54.0600 H      9994  TIP9844     0.2052
 48895 OH2        -28.7660    -2.9820    51.5800 O.3    9995  TIP9845    -0.4105
 48896 H1         -28.6110    -2.8540    50.6440 H      9995  TIP9845     0.2052
 48897 H2         -27.9700    -2.6600    52.0020 H      9995  TIP9845     0.2052
 48898 OH2         11.6330    25.7190    49.2450 O.3    9996  TIP9846    -0.4105
 48899 H1          11.8460    26.3610    48.5680 H      9996  TIP9846     0.2052
 48900 H2          12.4430    25.6190    49.7450 H      9996  TIP9846     0.2052
 48901 OH2         21.2280    18.7670   -30.8970 O.3    9997  TIP9847    -0.4105
 48902 H1          21.5660    18.2110   -31.5990 H      9997  TIP9847     0.2052
 48903 H2          21.0130    19.5940   -31.3270 H      9997  TIP9847     0.2052
 48904 OH2         24.3800   -32.6600    25.4860 O.3    9998  TIP9848    -0.4105
 48905 H1          23.7960   -33.3300    25.1310 H      9998  TIP9848     0.2052
 48906 H2          23.9120   -31.8360    25.3490 H      9998  TIP9848     0.2052
 48907 OH2         -9.5650   -23.2560    48.1690 O.3    9999  TIP9849    -0.4105
 48908 H1          -8.6870   -22.8820    48.2490 H      9999  TIP9849     0.2052
 48909 H2          -9.8940   -23.2900    49.0680 H      9999  TIP9849     0.2052
 48910 OH2          8.7480   -10.1020    38.5730 O.3   10000  TIP9850    -0.4105
 48911 H1           8.5810   -10.5820    39.3830 H     10000  TIP9850     0.2052
 48912 H2           9.1180   -10.7550    37.9790 H     10000  TIP9850     0.2052
 48913 OH2        -24.0660   -18.4460    18.9950 O.3   10001  TIP9851    -0.4105
 48914 H1         -23.2520   -18.3920    18.4950 H     10001  TIP9851     0.2052
 48915 H2         -24.1500   -19.3730    19.2170 H     10001  TIP9851     0.2052
 48916 OH2        -25.8840    31.9300   -27.9520 O.3   10002  TIP9852    -0.4105
 48917 H1         -25.0990    32.3890   -28.2510 H     10002  TIP9852     0.2052
 48918 H2         -25.8410    31.0750   -28.3800 H     10002  TIP9852     0.2052
 48919 OH2         23.9270    -8.7240   -53.7880 O.3   10003  TIP9853    -0.4105
 48920 H1          24.0760    -7.8110   -54.0340 H     10003  TIP9853     0.2052
 48921 H2          23.1730    -8.6930   -53.1990 H     10003  TIP9853     0.2052
 48922 OH2        -26.6350    32.4420    14.6670 O.3   10004  TIP9854    -0.4105
 48923 H1         -26.8020    31.5050    14.5640 H     10004  TIP9854     0.2052
 48924 H2         -26.2290    32.7060    13.8420 H     10004  TIP9854     0.2052
 48925 OH2        -13.3610   -17.0080   -41.3090 O.3   10005  TIP9855    -0.4105
 48926 H1         -13.7200   -17.2740   -40.4630 H     10005  TIP9855     0.2052
 48927 H2         -12.5690   -16.5160   -41.0900 H     10005  TIP9855     0.2052
 48928 OH2         26.3070     1.6570   -40.2660 O.3   10006  TIP9856    -0.4105
 48929 H1          25.5110     1.2840   -40.6450 H     10006  TIP9856     0.2052
 48930 H2          26.2530     1.4420   -39.3350 H     10006  TIP9856     0.2052
 48931 OH2        -23.2620   -12.9670    30.9720 O.3   10007  TIP9857    -0.4105
 48932 H1         -23.5160   -13.3370    30.1260 H     10007  TIP9857     0.2052
 48933 H2         -22.3070   -13.0190    30.9790 H     10007  TIP9857     0.2052
 48934 OH2          9.4550    16.3400   -40.6810 O.3   10008  TIP9858    -0.4105
 48935 H1           9.7280    17.1740   -41.0620 H     10008  TIP9858     0.2052
 48936 H2           8.5230    16.2750   -40.8870 H     10008  TIP9858     0.2052
 48937 OH2          3.8240    -5.9770    42.9250 O.3   10009  TIP9859    -0.4105
 48938 H1           3.9690    -6.9230    42.9400 H     10009  TIP9859     0.2052
 48939 H2           3.2420    -5.8340    42.1790 H     10009  TIP9859     0.2052
 48940 OH2         19.1570    28.9740    26.0630 O.3   10010  TIP9860    -0.4105
 48941 H1          19.6640    28.4810    26.7070 H     10010  TIP9860     0.2052
 48942 H2          18.3460    28.4760    25.9630 H     10010  TIP9860     0.2052
 48943 OH2        -12.5170   -19.8910    50.7760 O.3   10011  TIP9861    -0.4105
 48944 H1         -11.9550   -19.4550    51.4160 H     10011  TIP9861     0.2052
 48945 H2         -13.3080   -20.1160    51.2660 H     10011  TIP9861     0.2052
 48946 OH2         14.4530    -7.3030   -10.0730 O.3   10012  TIP9862    -0.4105
 48947 H1          14.8460    -7.8610    -9.4010 H     10012  TIP9862     0.2052
 48948 H2          14.8230    -6.4350    -9.9100 H     10012  TIP9862     0.2052
 48949 OH2        -32.4620   -26.6330    50.7640 O.3   10013  TIP9863    -0.4105
 48950 H1         -32.0330   -25.9330    51.2560 H     10013  TIP9863     0.2052
 48951 H2         -32.2180   -26.4690    49.8530 H     10013  TIP9863     0.2052
 48952 OH2        -16.3180    -8.7930    40.5300 O.3   10014  TIP9864    -0.4105
 48953 H1         -15.6350    -9.3320    40.9270 H     10014  TIP9864     0.2052
 48954 H2         -16.0260    -8.6630    39.6270 H     10014  TIP9864     0.2052
 48955 OH2        -27.2840   -31.0260    23.3130 O.3   10015  TIP9865    -0.4105
 48956 H1         -27.5890   -31.6560    22.6610 H     10015  TIP9865     0.2052
 48957 H2         -26.4860   -31.4170    23.6690 H     10015  TIP9865     0.2052
 48958 OH2        -26.7220    14.4930   -25.6290 O.3   10016  TIP9866    -0.4105
 48959 H1         -26.5370    15.4240   -25.7490 H     10016  TIP9866     0.2052
 48960 H2         -25.8960    14.0560   -25.8350 H     10016  TIP9866     0.2052
 48961 OH2         -2.7980    23.5650   -45.0550 O.3   10017  TIP9867    -0.4105
 48962 H1          -3.1170    24.3230   -45.5450 H     10017  TIP9867     0.2052
 48963 H2          -3.4770    23.4010   -44.4000 H     10017  TIP9867     0.2052
 48964 OH2         26.5680    -3.7790    51.8850 O.3   10018  TIP9868    -0.4105
 48965 H1          27.4510    -4.0660    51.6510 H     10018  TIP9868     0.2052
 48966 H2          26.7050    -3.0810    52.5260 H     10018  TIP9868     0.2052
 48967 OH2         -9.0810   -15.4010    40.3540 O.3   10019  TIP9869    -0.4105
 48968 H1          -8.4410   -15.1770    39.6790 H     10019  TIP9869     0.2052
 48969 H2          -8.7310   -16.1920    40.7640 H     10019  TIP9869     0.2052
 48970 OH2        -24.0500   -28.0740   -55.1980 O.3   10020  TIP9870    -0.4105
 48971 H1         -23.5110   -27.8070   -54.4540 H     10020  TIP9870     0.2052
 48972 H2         -24.4830   -27.2690   -55.4830 H     10020  TIP9870     0.2052
 48973 OH2         31.6690    -7.4060    50.1650 O.3   10021  TIP9871    -0.4105
 48974 H1          31.9750    -6.9340    50.9390 H     10021  TIP9871     0.2052
 48975 H2          31.8830    -8.3220    50.3420 H     10021  TIP9871     0.2052
 48976 OH2          3.7110   -21.8100    52.3690 O.3   10022  TIP9872    -0.4105
 48977 H1           4.1060   -21.2200    53.0110 H     10022  TIP9872     0.2052
 48978 H2           3.3900   -22.5480    52.8880 H     10022  TIP9872     0.2052
 48979 OH2         -0.1640    30.5840    45.7580 O.3   10023  TIP9873    -0.4105
 48980 H1           0.1660    31.0200    44.9730 H     10023  TIP9873     0.2052
 48981 H2          -0.0060    29.6530    45.6000 H     10023  TIP9873     0.2052
 48982 OH2        -22.3250    -6.7320   -38.4460 O.3   10024  TIP9874    -0.4105
 48983 H1         -21.6310    -6.0950   -38.6160 H     10024  TIP9874     0.2052
 48984 H2         -22.2740    -7.3450   -39.1800 H     10024  TIP9874     0.2052
 48985 OH2          4.7910    15.3690   -33.2630 O.3   10025  TIP9875    -0.4105
 48986 H1           4.5890    14.8110   -34.0140 H     10025  TIP9875     0.2052
 48987 H2           4.8330    16.2540   -33.6250 H     10025  TIP9875     0.2052
 48988 OH2         23.7800    10.0860    50.3960 O.3   10026  TIP9876    -0.4105
 48989 H1          23.5860     9.5770    51.1830 H     10026  TIP9876     0.2052
 48990 H2          23.2640    10.8860    50.4950 H     10026  TIP9876     0.2052
 48991 OH2          1.1050    29.5730    37.4730 O.3   10027  TIP9877    -0.4105
 48992 H1           0.2930    29.5680    37.9790 H     10027  TIP9877     0.2052
 48993 H2           0.9150    30.1330    36.7200 H     10027  TIP9877     0.2052
 48994 OH2         -3.2400    13.9550   -43.7210 O.3   10028  TIP9878    -0.4105
 48995 H1          -4.0260    13.9860   -44.2670 H     10028  TIP9878     0.2052
 48996 H2          -2.5190    13.8690   -44.3440 H     10028  TIP9878     0.2052
 48997 OH2        -10.3810    11.2670   -48.3360 O.3   10029  TIP9879    -0.4105
 48998 H1         -10.9400    11.7810   -47.7530 H     10029  TIP9879     0.2052
 48999 H2         -10.6380    11.5410   -49.2170 H     10029  TIP9879     0.2052
 49000 OH2         31.9650    23.6660    53.5480 O.3   10030  TIP9880    -0.4105
 49001 H1          31.9110    23.3720    52.6390 H     10030  TIP9880     0.2052
 49002 H2          32.6500    23.1210    53.9360 H     10030  TIP9880     0.2052
 49003 OH2         20.2790    11.1900    49.8960 O.3   10031  TIP9881    -0.4105
 49004 H1          20.9070    11.7210    50.3870 H     10031  TIP9881     0.2052
 49005 H2          19.9530    10.5540    50.5320 H     10031  TIP9881     0.2052
 49006 OH2        -16.3680    29.3860    41.3250 O.3   10032  TIP9882    -0.4105
 49007 H1         -16.4780    30.0160    42.0370 H     10032  TIP9882     0.2052
 49008 H2         -17.1280    28.8080    41.3960 H     10032  TIP9882     0.2052
 49009 OH2         15.9910    -7.8460    38.4930 O.3   10033  TIP9883    -0.4105
 49010 H1          15.8410    -7.2000    37.8030 H     10033  TIP9883     0.2052
 49011 H2          15.6790    -7.4210    39.2920 H     10033  TIP9883     0.2052
 49012 OH2        -30.0280    25.6020   -45.4560 O.3   10034  TIP9884    -0.4105
 49013 H1         -29.1560    25.2560   -45.2660 H     10034  TIP9884     0.2052
 49014 H2         -29.9900    25.8550   -46.3780 H     10034  TIP9884     0.2052
 49015 OH2        -32.4370     8.3250   -54.2140 O.3   10035  TIP9885    -0.4105
 49016 H1         -32.5250     7.5620   -54.7850 H     10035  TIP9885     0.2052
 49017 H2         -33.1730     8.8880   -54.4520 H     10035  TIP9885     0.2052
 49018 OH2        -18.2910    24.3690    30.8840 O.3   10036  TIP9886    -0.4105
 49019 H1         -17.5340    23.8190    31.0880 H     10036  TIP9886     0.2052
 49020 H2         -17.9130    25.1970    30.5880 H     10036  TIP9886     0.2052
 49021 OH2          7.8050    -4.2330   -18.5570 O.3   10037  TIP9887    -0.4105
 49022 H1           8.4860    -3.5610   -18.5710 H     10037  TIP9887     0.2052
 49023 H2           6.9840    -3.7420   -18.5830 H     10037  TIP9887     0.2052
 49024 OH2         32.1490   -12.6190    21.2980 O.3   10038  TIP9888    -0.4105
 49025 H1          32.2790   -12.3790    20.3800 H     10038  TIP9888     0.2052
 49026 H2          32.2980   -13.5640    21.3220 H     10038  TIP9888     0.2052
 49027 OH2         18.2360    19.6960   -26.5260 O.3   10039  TIP9889    -0.4105
 49028 H1          18.7160    19.0630   -25.9920 H     10039  TIP9889     0.2052
 49029 H2          17.4400    19.2330   -26.7880 H     10039  TIP9889     0.2052
 49030 OH2        -18.9160    -9.7010    25.2970 O.3   10040  TIP9890    -0.4105
 49031 H1         -18.7180   -10.6100    25.0700 H     10040  TIP9890     0.2052
 49032 H2         -18.2580    -9.1890    24.8260 H     10040  TIP9890     0.2052
 49033 OH2        -17.7240    19.4970   -48.2050 O.3   10041  TIP9891    -0.4105
 49034 H1         -17.4810    20.2160   -48.7890 H     10041  TIP9891     0.2052
 49035 H2         -17.2210    18.7480   -48.5240 H     10041  TIP9891     0.2052
 49036 OH2         11.7560   -20.8130    52.6120 O.3   10042  TIP9892    -0.4105
 49037 H1          11.8530   -20.6180    53.5440 H     10042  TIP9892     0.2052
 49038 H2          12.5960   -21.1960    52.3580 H     10042  TIP9892     0.2052
 49039 OH2         -1.2620   -13.5140   -50.3090 O.3   10043  TIP9893    -0.4105
 49040 H1          -0.9320   -13.1030   -51.1080 H     10043  TIP9893     0.2052
 49041 H2          -1.6190   -14.3530   -50.6000 H     10043  TIP9893     0.2052
 49042 OH2          5.0410    -6.5800   -31.6950 O.3   10044  TIP9894    -0.4105
 49043 H1           4.8280    -6.0960   -30.8970 H     10044  TIP9894     0.2052
 49044 H2           5.2270    -5.9020   -32.3440 H     10044  TIP9894     0.2052
 49045 OH2         28.4700   -22.8480   -51.4370 O.3   10045  TIP9895    -0.4105
 49046 H1          28.9680   -22.9860   -52.2430 H     10045  TIP9895     0.2052
 49047 H2          28.8810   -22.0850   -51.0290 H     10045  TIP9895     0.2052
 49048 OH2        -14.6950   -25.7760   -52.4830 O.3   10046  TIP9896    -0.4105
 49049 H1         -14.9610   -24.9050   -52.7770 H     10046  TIP9896     0.2052
 49050 H2         -15.5080   -26.1890   -52.1920 H     10046  TIP9896     0.2052
 49051 OH2          2.4900    32.8820   -42.3960 O.3   10047  TIP9897    -0.4105
 49052 H1           1.7000    33.1990   -41.9570 H     10047  TIP9897     0.2052
 49053 H2           2.4910    33.3320   -43.2410 H     10047  TIP9897     0.2052
 49054 OH2        -10.4060   -20.9800    16.6860 O.3   10048  TIP9898    -0.4105
 49055 H1         -10.8620   -20.1400    16.6330 H     10048  TIP9898     0.2052
 49056 H2         -11.0740   -21.6300    16.4680 H     10048  TIP9898     0.2052
 49057 OH2         -1.6090    -9.2440   -26.3110 O.3   10049  TIP9899    -0.4105
 49058 H1          -2.4210    -8.7690   -26.1320 H     10049  TIP9899     0.2052
 49059 H2          -0.9150    -8.6150   -26.1130 H     10049  TIP9899     0.2052
 49060 OH2          6.6440    31.4240   -43.3040 O.3   10050  TIP9900    -0.4105
 49061 H1           5.7620    31.0650   -43.2050 H     10050  TIP9900     0.2052
 49062 H2           7.1430    31.0350   -42.5850 H     10050  TIP9900     0.2052
 49063 OH2         29.4530     3.0550   -53.9200 O.3   10051  TIP9901    -0.4105
 49064 H1          29.3260     2.1100   -53.8320 H     10051  TIP9901     0.2052
 49065 H2          30.1740     3.2560   -53.3230 H     10051  TIP9901     0.2052
 49066 OH2         25.6230   -13.6970   -39.2410 O.3   10052  TIP9902    -0.4105
 49067 H1          25.6850   -14.4920   -39.7710 H     10052  TIP9902     0.2052
 49068 H2          25.9550   -13.9550   -38.3810 H     10052  TIP9902     0.2052
 49069 OH2        -29.6790     0.7680   -18.1280 O.3   10053  TIP9903    -0.4105
 49070 H1         -30.3710     0.9420   -17.4890 H     10053  TIP9903     0.2052
 49071 H2         -29.7800     1.4570   -18.7840 H     10053  TIP9903     0.2052
 49072 OH2        -11.0150   -31.2410   -47.4870 O.3   10054  TIP9904    -0.4105
 49073 H1         -11.2700   -31.4770   -48.3780 H     10054  TIP9904     0.2052
 49074 H2         -11.8370   -31.2300   -46.9960 H     10054  TIP9904     0.2052
 49075 OH2         32.7050    10.4430   -40.8900 O.3   10055  TIP9905    -0.4105
 49076 H1          32.9860     9.5370   -41.0200 H     10055  TIP9905     0.2052
 49077 H2          32.1260    10.6230   -41.6310 H     10055  TIP9905     0.2052
 49078 OH2        -28.3010   -11.9510   -22.8910 O.3   10056  TIP9906    -0.4105
 49079 H1         -28.9430   -12.4640   -23.3830 H     10056  TIP9906     0.2052
 49080 H2         -28.7890   -11.6120   -22.1410 H     10056  TIP9906     0.2052
 49081 OH2         -2.7770   -13.8440    25.8730 O.3   10057  TIP9907    -0.4105
 49082 H1          -1.8750   -13.6130    25.6490 H     10057  TIP9907     0.2052
 49083 H2          -3.1840   -14.0620    25.0340 H     10057  TIP9907     0.2052
 49084 OH2         20.3440    -0.9570   -38.8340 O.3   10058  TIP9908    -0.4105
 49085 H1          20.5830    -1.2250   -39.7210 H     10058  TIP9908     0.2052
 49086 H2          21.1230    -0.5120   -38.4990 H     10058  TIP9908     0.2052
 49087 OH2         -0.7950     6.2200   -33.0850 O.3   10059  TIP9909    -0.4105
 49088 H1          -0.2560     6.8120   -32.5620 H     10059  TIP9909     0.2052
 49089 H2          -1.6180     6.6920   -33.2100 H     10059  TIP9909     0.2052
 49090 OH2        -32.0720    -0.7460   -29.9480 O.3   10060  TIP9910    -0.4105
 49091 H1         -32.3900    -1.5740   -30.3060 H     10060  TIP9910     0.2052
 49092 H2         -31.1720    -0.9310   -29.6780 H     10060  TIP9910     0.2052
 49093 OH2        -14.6320    -3.8200   -36.1870 O.3   10061  TIP9911    -0.4105
 49094 H1         -14.4280    -2.9410   -36.5050 H     10061  TIP9911     0.2052
 49095 H2         -15.1040    -3.6760   -35.3670 H     10061  TIP9911     0.2052
 49096 OH2         29.6050    16.6910    19.0820 O.3   10062  TIP9912    -0.4105
 49097 H1          29.2590    15.8200    19.2790 H     10062  TIP9912     0.2052
 49098 H2          28.8810    17.2860    19.2770 H     10062  TIP9912     0.2052
 49099 OH2         -8.0660   -29.7500   -38.1850 O.3   10063  TIP9913    -0.4105
 49100 H1          -7.3250   -29.6830   -37.5830 H     10063  TIP9913     0.2052
 49101 H2          -8.5150   -30.5540   -37.9250 H     10063  TIP9913     0.2052
 49102 OH2        -11.3010    25.6460    25.5390 O.3   10064  TIP9914    -0.4105
 49103 H1         -11.1490    25.0420    24.8120 H     10064  TIP9914     0.2052
 49104 H2         -10.4340    25.7850    25.9200 H     10064  TIP9914     0.2052
 49105 OH2         26.7040   -25.4380    33.4880 O.3   10065  TIP9915    -0.4105
 49106 H1          26.5990   -26.2210    34.0280 H     10065  TIP9915     0.2052
 49107 H2          25.8180   -25.2280    33.1950 H     10065  TIP9915     0.2052
 49108 OH2          3.7410    22.4230   -53.8430 O.3   10066  TIP9916    -0.4105
 49109 H1           3.2680    22.4870   -53.0130 H     10066  TIP9916     0.2052
 49110 H2           4.3780    23.1370   -53.8120 H     10066  TIP9916     0.2052
 49111 OH2        -30.1920   -23.0550    25.2070 O.3   10067  TIP9917    -0.4105
 49112 H1         -30.8910   -23.5500    25.6320 H     10067  TIP9917     0.2052
 49113 H2         -30.6460   -22.4750    24.5960 H     10067  TIP9917     0.2052
 49114 OH2         14.1720    28.6590    49.1880 O.3   10068  TIP9918    -0.4105
 49115 H1          13.6190    29.2870    49.6530 H     10068  TIP9918     0.2052
 49116 H2          14.8200    28.3850    49.8370 H     10068  TIP9918     0.2052
 49117 OH2        -31.3960   -22.3870   -38.5380 O.3   10069  TIP9919    -0.4105
 49118 H1         -30.8320   -22.9720   -38.0330 H     10069  TIP9919     0.2052
 49119 H2         -31.5260   -21.6280   -37.9690 H     10069  TIP9919     0.2052
 49120 OH2          6.2080   -19.6010    50.7680 O.3   10070  TIP9920    -0.4105
 49121 H1           6.4050   -19.6670    51.7020 H     10070  TIP9920     0.2052
 49122 H2           6.4860   -20.4410    50.4040 H     10070  TIP9920     0.2052
 49123 OH2         22.3280   -21.3870   -34.4640 O.3   10071  TIP9921    -0.4105
 49124 H1          22.2100   -20.5730   -33.9760 H     10071  TIP9921     0.2052
 49125 H2          23.2730   -21.4470   -34.6050 H     10071  TIP9921     0.2052
 49126 OH2         -6.6540    14.6950    42.2880 O.3   10072  TIP9922    -0.4105
 49127 H1          -6.2720    15.5610    42.4320 H     10072  TIP9922     0.2052
 49128 H2          -7.3450    14.8420    41.6410 H     10072  TIP9922     0.2052
 49129 OH2        -20.1740   -14.0260    53.7850 O.3   10073  TIP9923    -0.4105
 49130 H1         -20.3330   -14.9070    53.4460 H     10073  TIP9923     0.2052
 49131 H2         -20.4660   -13.4430    53.0840 H     10073  TIP9923     0.2052
 49132 OH2         16.2670   -25.3660   -53.9300 O.3   10074  TIP9924    -0.4105
 49133 H1          17.1480   -25.3810   -54.3040 H     10074  TIP9924     0.2052
 49134 H2          15.9310   -26.2510   -54.0710 H     10074  TIP9924     0.2052
 49135 OH2         27.5440   -11.9120    47.7260 O.3   10075  TIP9925    -0.4105
 49136 H1          27.2220   -11.4870    46.9310 H     10075  TIP9925     0.2052
 49137 H2          28.2940   -11.3820    47.9960 H     10075  TIP9925     0.2052
 49138 OH2          2.7640   -19.5710   -31.9790 O.3   10076  TIP9926    -0.4105
 49139 H1           2.4870   -19.8020   -32.8650 H     10076  TIP9926     0.2052
 49140 H2           2.1610   -20.0460   -31.4070 H     10076  TIP9926     0.2052
 49141 OH2         -0.1510    10.0710   -45.9330 O.3   10077  TIP9927    -0.4105
 49142 H1          -0.0610    10.2780   -46.8630 H     10077  TIP9927     0.2052
 49143 H2           0.2950    10.7880   -45.4830 H     10077  TIP9927     0.2052
 49144 OH2         -1.7260   -18.9410   -21.2580 O.3   10078  TIP9928    -0.4105
 49145 H1          -1.8970   -19.7060   -20.7090 H     10078  TIP9928     0.2052
 49146 H2          -1.6140   -18.2210   -20.6380 H     10078  TIP9928     0.2052
 49147 OH2          1.9110    18.6720   -49.0150 O.3   10079  TIP9929    -0.4105
 49148 H1           1.7430    19.0980   -48.1740 H     10079  TIP9929     0.2052
 49149 H2           1.0620    18.6740   -49.4580 H     10079  TIP9929     0.2052
 49150 OH2        -18.7580   -11.1200   -46.6010 O.3   10080  TIP9930    -0.4105
 49151 H1         -18.0050   -10.5460   -46.7470 H     10080  TIP9930     0.2052
 49152 H2         -19.4590   -10.7330   -47.1240 H     10080  TIP9930     0.2052
 49153 OH2         32.5610     1.9340    28.2460 O.3   10081  TIP9931    -0.4105
 49154 H1          33.4430     2.2060    28.4980 H     10081  TIP9931     0.2052
 49155 H2          32.1150     2.7490    28.0160 H     10081  TIP9931     0.2052
 49156 OH2         -8.8990    -9.8030   -12.3010 O.3   10082  TIP9932    -0.4105
 49157 H1          -9.7840    -9.4460   -12.3740 H     10082  TIP9932     0.2052
 49158 H2          -8.9090   -10.5840   -12.8540 H     10082  TIP9932     0.2052
 49159 OH2         29.8450    32.2430    44.6020 O.3   10083  TIP9933    -0.4105
 49160 H1          29.1530    32.8260    44.9140 H     10083  TIP9933     0.2052
 49161 H2          29.5700    31.3710    44.8850 H     10083  TIP9933     0.2052
 49162 OH2         12.4910    -0.4890    36.7800 O.3   10084  TIP9934    -0.4105
 49163 H1          12.6420     0.4420    36.9440 H     10084  TIP9934     0.2052
 49164 H2          11.8360    -0.5070    36.0830 H     10084  TIP9934     0.2052
 49165 OH2         -3.6170     3.5860    46.5790 O.3   10085  TIP9935    -0.4105
 49166 H1          -3.3120     2.6910    46.7300 H     10085  TIP9935     0.2052
 49167 H2          -3.3250     4.0720    47.3510 H     10085  TIP9935     0.2052
 49168 OH2         14.5990    -1.9120    34.7020 O.3   10086  TIP9936    -0.4105
 49169 H1          15.1280    -1.5020    34.0180 H     10086  TIP9936     0.2052
 49170 H2          14.4630    -1.2190    35.3490 H     10086  TIP9936     0.2052
 49171 OH2        -16.9820    30.2710    32.3140 O.3   10087  TIP9937    -0.4105
 49172 H1         -16.2560    29.8080    31.8960 H     10087  TIP9937     0.2052
 49173 H2         -17.7490    30.0380    31.7900 H     10087  TIP9937     0.2052
 49174 OH2        -20.1830    22.2390    33.4780 O.3   10088  TIP9938    -0.4105
 49175 H1         -20.4480    22.0910    34.3850 H     10088  TIP9938     0.2052
 49176 H2         -19.2990    21.8750    33.4240 H     10088  TIP9938     0.2052
 49177 OH2        -12.0850    16.6350   -18.1270 O.3   10089  TIP9939    -0.4105
 49178 H1         -11.1330    16.5520   -18.1730 H     10089  TIP9939     0.2052
 49179 H2         -12.3300    17.0520   -18.9530 H     10089  TIP9939     0.2052
 49180 OH2         19.3270    24.6920   -32.7560 O.3   10090  TIP9940    -0.4105
 49181 H1          18.5060    24.5120   -33.2150 H     10090  TIP9940     0.2052
 49182 H2          19.9540    24.8850   -33.4530 H     10090  TIP9940     0.2052
 49183 OH2        -29.5020   -21.7850    46.0400 O.3   10091  TIP9941    -0.4105
 49184 H1         -30.4340   -21.6540    45.8630 H     10091  TIP9941     0.2052
 49185 H2         -29.2640   -22.5540    45.5220 H     10091  TIP9941     0.2052
 49186 OH2         -5.4810    -8.3960   -28.6470 O.3   10092  TIP9942    -0.4105
 49187 H1          -5.9850    -8.7030   -29.4010 H     10092  TIP9942     0.2052
 49188 H2          -5.4170    -9.1600   -28.0740 H     10092  TIP9942     0.2052
 49189 OH2          2.7820    31.0270   -36.6250 O.3   10093  TIP9943    -0.4105
 49190 H1           3.6110    31.1560   -37.0870 H     10093  TIP9943     0.2052
 49191 H2           2.4770    30.1670   -36.9140 H     10093  TIP9943     0.2052
 49192 OH2         12.9220    29.2180    25.3960 O.3   10094  TIP9944    -0.4105
 49193 H1          13.1800    28.5730    24.7370 H     10094  TIP9944     0.2052
 49194 H2          13.7480    29.5950    25.6990 H     10094  TIP9944     0.2052
 49195 OH2         21.8670    24.7460    31.0960 O.3   10095  TIP9945    -0.4105
 49196 H1          21.6380    24.8860    30.1770 H     10095  TIP9945     0.2052
 49197 H2          21.1930    25.2180    31.5850 H     10095  TIP9945     0.2052
 49198 OH2         22.0550   -24.3770    22.2940 O.3   10096  TIP9946    -0.4105
 49199 H1          21.7680   -25.2890    22.3430 H     10096  TIP9946     0.2052
 49200 H2          22.3980   -24.2820    21.4050 H     10096  TIP9946     0.2052
 49201 OH2        -12.4220    30.0480    45.7020 O.3   10097  TIP9947    -0.4105
 49202 H1         -11.7800    30.2940    46.3680 H     10097  TIP9947     0.2052
 49203 H2         -13.1310    30.6830    45.8050 H     10097  TIP9947     0.2052
 49204 OH2          7.9090    25.7330   -41.2340 O.3   10098  TIP9948    -0.4105
 49205 H1           8.3490    24.9580   -40.8850 H     10098  TIP9948     0.2052
 49206 H2           8.0710    25.6970   -42.1760 H     10098  TIP9948     0.2052
 49207 OH2        -23.9880    28.6790    26.5960 O.3   10099  TIP9949    -0.4105
 49208 H1         -23.3240    29.0820    26.0360 H     10099  TIP9949     0.2052
 49209 H2         -24.7460    29.2580    26.5250 H     10099  TIP9949     0.2052
 49210 OH2         -3.5590    30.8280    24.3030 O.3   10100  TIP9950    -0.4105
 49211 H1          -4.3640    31.2640    24.5840 H     10100  TIP9950     0.2052
 49212 H2          -3.2950    30.3030    25.0590 H     10100  TIP9950     0.2052
 49213 OH2         28.7890    31.6680   -42.1610 O.3   10101  TIP9951    -0.4105
 49214 H1          28.4880    30.7610   -42.1040 H     10101  TIP9951     0.2052
 49215 H2          29.2910    31.7040   -42.9750 H     10101  TIP9951     0.2052
 49216 OH2         -2.9590   -10.9170   -42.9210 O.3   10102  TIP9952    -0.4105
 49217 H1          -2.7940    -9.9740   -42.9290 H     10102  TIP9952     0.2052
 49218 H2          -2.2820   -11.2840   -43.4900 H     10102  TIP9952     0.2052
 49219 OH2          0.2340    -5.2850   -52.4350 O.3   10103  TIP9953    -0.4105
 49220 H1           0.4110    -6.1170   -52.8730 H     10103  TIP9953     0.2052
 49221 H2          -0.7200    -5.2140   -52.4290 H     10103  TIP9953     0.2052
 49222 OH2        -11.7990     9.1440    39.0170 O.3   10104  TIP9954    -0.4105
 49223 H1         -12.2130     9.8070    38.4640 H     10104  TIP9954     0.2052
 49224 H2         -12.4680     8.4680    39.1230 H     10104  TIP9954     0.2052
 49225 OH2         -6.3970    27.7120   -34.6820 O.3   10105  TIP9955    -0.4105
 49226 H1          -6.1700    28.1460   -33.8590 H     10105  TIP9955     0.2052
 49227 H2          -7.3520    27.6450   -34.6620 H     10105  TIP9955     0.2052
 49228 OH2         21.9230     6.0350   -26.5030 O.3   10106  TIP9956    -0.4105
 49229 H1          22.7460     6.4410   -26.2330 H     10106  TIP9956     0.2052
 49230 H2          22.1490     5.5320   -27.2850 H     10106  TIP9956     0.2052
 49231 OH2        -21.6490   -27.8570    29.2580 O.3   10107  TIP9957    -0.4105
 49232 H1         -21.3100   -28.5940    29.7660 H     10107  TIP9957     0.2052
 49233 H2         -22.4860   -27.6450    29.6720 H     10107  TIP9957     0.2052
 49234 OH2         -6.4270   -12.1150   -23.5820 O.3   10108  TIP9958    -0.4105
 49235 H1          -6.6700   -12.0930   -22.6560 H     10108  TIP9958     0.2052
 49236 H2          -7.1900   -12.4890   -24.0210 H     10108  TIP9958     0.2052
 49237 OH2         20.4720   -15.6960    47.0960 O.3   10109  TIP9959    -0.4105
 49238 H1          19.6830   -15.2810    46.7490 H     10109  TIP9959     0.2052
 49239 H2          21.0490   -14.9650    47.3190 H     10109  TIP9959     0.2052
 49240 OH2          4.3240    25.4880   -36.5780 O.3   10110  TIP9960    -0.4105
 49241 H1           3.4680    25.1960   -36.2650 H     10110  TIP9960     0.2052
 49242 H2           4.3090    26.4390   -36.4660 H     10110  TIP9960     0.2052
 49243 OH2         19.8320    22.4080   -47.1970 O.3   10111  TIP9961    -0.4105
 49244 H1          20.7370    22.1530   -47.3770 H     10111  TIP9961     0.2052
 49245 H2          19.3100    21.6560   -47.4780 H     10111  TIP9961     0.2052
 49246 OH2          2.5790   -26.1550   -51.2430 O.3   10112  TIP9962    -0.4105
 49247 H1           2.0220   -26.9270   -51.1360 H     10112  TIP9962     0.2052
 49248 H2           2.6740   -25.8030   -50.3580 H     10112  TIP9962     0.2052
 49249 OH2        -27.3000    18.3810    39.9720 O.3   10113  TIP9963    -0.4105
 49250 H1         -28.0850    18.8230    39.6470 H     10113  TIP9963     0.2052
 49251 H2         -27.2390    17.5830    39.4460 H     10113  TIP9963     0.2052
 49252 OH2         24.0820   -33.0340   -46.3030 O.3   10114  TIP9964    -0.4105
 49253 H1          24.6900   -33.4550   -45.6960 H     10114  TIP9964     0.2052
 49254 H2          23.4630   -32.5690   -45.7400 H     10114  TIP9964     0.2052
 49255 OH2         -4.7090    21.8930   -49.9330 O.3   10115  TIP9965    -0.4105
 49256 H1          -4.8980    21.0080   -49.6210 H     10115  TIP9965     0.2052
 49257 H2          -4.8650    22.4530   -49.1730 H     10115  TIP9965     0.2052
 49258 OH2         -1.1070    -9.6310    44.9400 O.3   10116  TIP9966    -0.4105
 49259 H1          -1.4940   -10.5060    44.9540 H     10116  TIP9966     0.2052
 49260 H2          -0.4620    -9.6650    44.2340 H     10116  TIP9966     0.2052
 49261 OH2         31.8490   -17.1510    37.9730 O.3   10117  TIP9967    -0.4105
 49262 H1          32.2970   -17.9540    37.7070 H     10117  TIP9967     0.2052
 49263 H2          31.0170   -17.1720    37.5010 H     10117  TIP9967     0.2052
 49264 OH2        -12.1940   -18.3690    25.7770 O.3   10118  TIP9968    -0.4105
 49265 H1         -11.7530   -18.8890    25.1060 H     10118  TIP9968     0.2052
 49266 H2         -12.5510   -17.6180    25.3030 H     10118  TIP9968     0.2052
 49267 OH2        -18.4870     8.2720   -20.9980 O.3   10119  TIP9969    -0.4105
 49268 H1         -19.3230     8.3770   -20.5430 H     10119  TIP9969     0.2052
 49269 H2         -18.0840     7.5080   -20.5860 H     10119  TIP9969     0.2052
 49270 OH2          3.9610    -2.3070   -39.1370 O.3   10120  TIP9970    -0.4105
 49271 H1           3.0410    -2.5310   -38.9970 H     10120  TIP9970     0.2052
 49272 H2           4.3000    -3.0140   -39.6850 H     10120  TIP9970     0.2052
 49273 OH2         10.5040    28.6710   -33.6460 O.3   10121  TIP9971    -0.4105
 49274 H1           9.5990    28.8490   -33.3890 H     10121  TIP9971     0.2052
 49275 H2          10.5850    29.0500   -34.5210 H     10121  TIP9971     0.2052
 49276 OH2         15.2800   -26.5960    47.6880 O.3   10122  TIP9972    -0.4105
 49277 H1          14.4950   -26.1060    47.4440 H     10122  TIP9972     0.2052
 49278 H2          15.4230   -27.1990    46.9580 H     10122  TIP9972     0.2052
 49279 OH2         18.1760    15.0510   -19.9150 O.3   10123  TIP9973    -0.4105
 49280 H1          17.3040    15.4440   -19.8840 H     10123  TIP9973     0.2052
 49281 H2          18.0130    14.1070   -19.9280 H     10123  TIP9973     0.2052
 49282 OH2        -24.4320    24.1170    28.3920 O.3   10124  TIP9974    -0.4105
 49283 H1         -23.4800    24.0700    28.3120 H     10124  TIP9974     0.2052
 49284 H2         -24.6750    23.3100    28.8450 H     10124  TIP9974     0.2052
 49285 OH2         -9.2820    -2.8490    53.1550 O.3   10125  TIP9975    -0.4105
 49286 H1          -8.5970    -3.0130    52.5070 H     10125  TIP9975     0.2052
 49287 H2          -9.3660    -1.8960    53.1800 H     10125  TIP9975     0.2052
 49288 OH2         12.9460    10.8460    51.6190 O.3   10126  TIP9976    -0.4105
 49289 H1          13.0440     9.9570    51.2780 H     10126  TIP9976     0.2052
 49290 H2          12.1270    10.8250    52.1140 H     10126  TIP9976     0.2052
 49291 OH2         12.8990   -21.5160   -33.3650 O.3   10127  TIP9977    -0.4105
 49292 H1          13.5030   -22.2580   -33.3740 H     10127  TIP9977     0.2052
 49293 H2          12.2340   -21.7550   -32.7200 H     10127  TIP9977     0.2052
 49294 OH2         28.3380    26.3520   -40.4380 O.3   10128  TIP9978    -0.4105
 49295 H1          29.2040    26.6770   -40.1930 H     10128  TIP9978     0.2052
 49296 H2          28.3830    26.2430   -41.3880 H     10128  TIP9978     0.2052
 49297 OH2         18.4370   -18.9920   -21.6440 O.3   10129  TIP9979    -0.4105
 49298 H1          17.5930   -19.4420   -21.6870 H     10129  TIP9979     0.2052
 49299 H2          18.2310   -18.1300   -21.2830 H     10129  TIP9979     0.2052
 49300 OH2        -12.1340   -19.7400   -25.2760 O.3   10130  TIP9980    -0.4105
 49301 H1         -12.0680   -19.1260   -26.0070 H     10130  TIP9980     0.2052
 49302 H2         -12.7870   -20.3800   -25.5580 H     10130  TIP9980     0.2052
 49303 OH2        -18.0850     2.9420    41.7650 O.3   10131  TIP9981    -0.4105
 49304 H1         -18.6910     2.8300    42.4980 H     10131  TIP9981     0.2052
 49305 H2         -18.5890     2.6800    40.9950 H     10131  TIP9981     0.2052
 49306 OH2         28.7810    16.6740   -28.7780 O.3   10132  TIP9982    -0.4105
 49307 H1          28.3720    17.5390   -28.7750 H     10132  TIP9982     0.2052
 49308 H2          28.5740    16.3080   -27.9180 H     10132  TIP9982     0.2052
 49309 OH2        -11.9660     8.9350    54.0850 O.3   10133  TIP9983    -0.4105
 49310 H1         -12.3220     9.5840    54.6920 H     10133  TIP9983     0.2052
 49311 H2         -12.0240     8.1060    54.5600 H     10133  TIP9983     0.2052
 49312 OH2          8.7560    29.1740    20.8460 O.3   10134  TIP9984    -0.4105
 49313 H1           8.5750    28.2650    20.6040 H     10134  TIP9984     0.2052
 49314 H2           9.7020    29.2680    20.7350 H     10134  TIP9984     0.2052
 49315 OH2         -6.6030   -13.0700    42.3100 O.3   10135  TIP9985    -0.4105
 49316 H1          -7.2440   -12.4970    42.7310 H     10135  TIP9985     0.2052
 49317 H2          -5.7680   -12.6150    42.4160 H     10135  TIP9985     0.2052
 49318 OH2         26.8530    30.9340   -18.7420 O.3   10136  TIP9986    -0.4105
 49319 H1          26.8450    30.8520   -17.7880 H     10136  TIP9986     0.2052
 49320 H2          26.7830    31.8750   -18.9020 H     10136  TIP9986     0.2052
 49321 OH2         -1.0970     4.9370    37.3790 O.3   10137  TIP9987    -0.4105
 49322 H1          -1.7480     4.8630    38.0770 H     10137  TIP9987     0.2052
 49323 H2          -1.2600     4.1800    36.8170 H     10137  TIP9987     0.2052
 49324 OH2          9.2600     2.3840    41.4650 O.3   10138  TIP9988    -0.4105
 49325 H1           9.7080     2.0400    40.6930 H     10138  TIP9988     0.2052
 49326 H2           9.8260     2.1440    42.1990 H     10138  TIP9988     0.2052
 49327 OH2        -32.7200    11.3710    36.2450 O.3   10139  TIP9989    -0.4105
 49328 H1         -32.8320    10.9910    37.1160 H     10139  TIP9989     0.2052
 49329 H2         -33.1030    12.2460    36.3140 H     10139  TIP9989     0.2052
 49330 OH2         -7.3180    29.4170    24.0150 O.3   10140  TIP9990    -0.4105
 49331 H1          -7.0830    29.8340    24.8440 H     10140  TIP9990     0.2052
 49332 H2          -7.7640    30.1030    23.5190 H     10140  TIP9990     0.2052
 49333 OH2        -14.0990    10.0940   -22.4630 O.3   10141  TIP9991    -0.4105
 49334 H1         -14.7490     9.4450   -22.1940 H     10141  TIP9991     0.2052
 49335 H2         -13.2840     9.7990   -22.0560 H     10141  TIP9991     0.2052
 49336 OH2         17.1640    -5.0570    29.6120 O.3   10142  TIP9992    -0.4105
 49337 H1          17.7400    -4.9920    30.3740 H     10142  TIP9992     0.2052
 49338 H2          17.4220    -4.3250    29.0530 H     10142  TIP9992     0.2052
 49339 OH2        -31.2860   -17.1100    37.0990 O.3   10143  TIP9993    -0.4105
 49340 H1         -31.5330   -18.0290    36.9950 H     10143  TIP9993     0.2052
 49341 H2         -31.9710   -16.7380    37.6540 H     10143  TIP9993     0.2052
 49342 OH2        -16.5850   -31.7160    34.5060 O.3   10144  TIP9994    -0.4105
 49343 H1         -15.7760   -32.2270    34.5410 H     10144  TIP9994     0.2052
 49344 H2         -16.7620   -31.4860    35.4180 H     10144  TIP9994     0.2052
 49345 OH2         -1.8670    -1.8900    48.9960 O.3   10145  TIP9995    -0.4105
 49346 H1          -1.4710    -1.0370    48.8170 H     10145  TIP9995     0.2052
 49347 H2          -2.6740    -1.6850    49.4690 H     10145  TIP9995     0.2052
 49348 OH2        -18.1830   -21.0530   -24.6410 O.3   10146  TIP9996    -0.4105
 49349 H1         -18.7030   -20.5050   -24.0530 H     10146  TIP9996     0.2052
 49350 H2         -17.8390   -21.7480   -24.0800 H     10146  TIP9996     0.2052
 49351 OH2         26.2620   -12.2480   -25.7000 O.3   10147  TIP9997    -0.4105
 49352 H1          25.9620   -12.3170   -26.6070 H     10147  TIP9997     0.2052
 49353 H2          27.0460   -11.7020   -25.7480 H     10147  TIP9997     0.2052
 49354 OH2        -17.9410   -26.4700    43.3040 O.3   10148  TIP9998    -0.4105
 49355 H1         -18.5860   -25.7630    43.2740 H     10148  TIP9998     0.2052
 49356 H2         -18.3190   -27.1150    43.9020 H     10148  TIP9998     0.2052
 49357 OH2         10.5770   -27.0830    35.3140 O.3   10149  TIP9999    -0.4105
 49358 H1          11.2560   -26.6140    35.7980 H     10149  TIP9999     0.2052
 49359 H2          11.0000   -27.3410    34.4950 H     10149  TIP9999     0.2052
 49360 OH2        -19.4660    13.8100   -52.8180 O.3   10150  TIP10000    -0.4105
 49361 H1         -19.3350    14.1110   -53.7180 H     10150  TIP10000     0.2052
 49362 H2         -20.2200    14.3110   -52.5050 H     10150  TIP10000     0.2052
 49363 OH2        -32.0870     4.6140   -49.9130 O.3   10151  TIP10001    -0.4105
 49364 H1         -32.6530     4.8900   -49.1920 H     10151  TIP10001     0.2052
 49365 H2         -32.6360     4.6940   -50.6930 H     10151  TIP10001     0.2052
 49366 OH2        -21.6840   -18.2300    31.5080 O.3   10152  TIP10002    -0.4105
 49367 H1         -21.2590   -18.7250    30.8070 H     10152  TIP10002     0.2052
 49368 H2         -22.6180   -18.2870    31.3090 H     10152  TIP10002     0.2052
 49369 OH2         31.6080     7.8140   -44.2970 O.3   10153  TIP10003    -0.4105
 49370 H1          32.2090     7.2950   -43.7640 H     10153  TIP10003     0.2052
 49371 H2          31.8560     7.6170   -45.2000 H     10153  TIP10003     0.2052
 49372 OH2        -27.6880   -18.3190    19.6410 O.3   10154  TIP10004    -0.4105
 49373 H1         -27.6460   -19.2730    19.5730 H     10154  TIP10004     0.2052
 49374 H2         -26.8820   -18.0750    20.0950 H     10154  TIP10004     0.2052
 49375 OH2         29.1990    -5.8180   -51.1380 O.3   10155  TIP10005    -0.4105
 49376 H1          29.2950    -4.9320   -51.4870 H     10155  TIP10005     0.2052
 49377 H2          28.9550    -6.3490   -51.8960 H     10155  TIP10005     0.2052
 49378 OH2         25.5010     8.4170   -49.0950 O.3   10156  TIP10006    -0.4105
 49379 H1          25.1670     8.9000   -49.8520 H     10156  TIP10006     0.2052
 49380 H2          24.7270     8.2500   -48.5570 H     10156  TIP10006     0.2052
 49381 OH2         28.8890     6.6990    39.2840 O.3   10157  TIP10007    -0.4105
 49382 H1          27.9570     6.8980    39.1900 H     10157  TIP10007     0.2052
 49383 H2          28.9150     5.9380    39.8640 H     10157  TIP10007     0.2052
 49384 OH2          4.1500   -19.9400    19.8030 O.3   10158  TIP10008    -0.4105
 49385 H1           4.6840   -20.7110    19.6120 H     10158  TIP10008     0.2052
 49386 H2           3.2550   -20.2120    19.6000 H     10158  TIP10008     0.2052
 49387 OH2          1.3730    -5.1350   -44.9820 O.3   10159  TIP10009    -0.4105
 49388 H1           1.6050    -4.4660   -45.6270 H     10159  TIP10009     0.2052
 49389 H2           0.8680    -5.7800   -45.4770 H     10159  TIP10009     0.2052
 49390 OH2         -4.9990    23.2990    40.9650 O.3   10160  TIP10010    -0.4105
 49391 H1          -4.2760    23.1630    41.5780 H     10160  TIP10010     0.2052
 49392 H2          -5.7780    23.3510    41.5200 H     10160  TIP10010     0.2052
 49393 OH2         -4.6710    17.8180    18.9730 O.3   10161  TIP10011    -0.4105
 49394 H1          -4.5250    18.5600    19.5600 H     10161  TIP10011     0.2052
 49395 H2          -3.8340    17.6980    18.5250 H     10161  TIP10011     0.2052
 49396 OH2         16.4810    23.7200    54.3710 O.3   10162  TIP10012    -0.4105
 49397 H1          17.1420    23.6250    53.6850 H     10162  TIP10012     0.2052
 49398 H2          15.9330    22.9390    54.2860 H     10162  TIP10012     0.2052
 49399 OH2         -8.2570    28.0520   -30.3960 O.3   10163  TIP10013    -0.4105
 49400 H1          -8.8860    27.8800   -31.0970 H     10163  TIP10013     0.2052
 49401 H2          -7.4850    28.3970   -30.8460 H     10163  TIP10013     0.2052
 49402 OH2        -26.7430   -32.6010    28.7800 O.3   10164  TIP10014    -0.4105
 49403 H1         -26.2740   -33.2690    28.2790 H     10164  TIP10014     0.2052
 49404 H2         -27.0710   -31.9920    28.1180 H     10164  TIP10014     0.2052
 49405 OH2          6.9200     2.9280    -8.3930 O.3   10165  TIP10015    -0.4105
 49406 H1           7.3540     2.3000    -8.9700 H     10165  TIP10015     0.2052
 49407 H2           7.5400     3.6540    -8.3200 H     10165  TIP10015     0.2052
 49408 OH2         12.9950     9.9510   -26.5420 O.3   10166  TIP10016    -0.4105
 49409 H1          13.0780     9.2530   -27.1920 H     10166  TIP10016     0.2052
 49410 H2          12.8180    10.7380   -27.0570 H     10166  TIP10016     0.2052
 49411 OH2          9.1570   -14.8290   -47.4560 O.3   10167  TIP10017    -0.4105
 49412 H1           9.1850   -14.8200   -48.4130 H     10167  TIP10017     0.2052
 49413 H2          10.0240   -14.5250   -47.1880 H     10167  TIP10017     0.2052
 49414 OH2         -3.0960   -17.5970   -36.9600 O.3   10168  TIP10018    -0.4105
 49415 H1          -3.8080   -18.2370   -36.9660 H     10168  TIP10018     0.2052
 49416 H2          -2.3170   -18.1080   -36.7380 H     10168  TIP10018     0.2052
 49417 OH2         -7.0960   -24.2400   -28.6400 O.3   10169  TIP10019    -0.4105
 49418 H1          -7.8210   -23.8330   -29.1140 H     10169  TIP10019     0.2052
 49419 H2          -6.7760   -23.5530   -28.0550 H     10169  TIP10019     0.2052
 49420 OH2        -17.5690    30.7970   -31.5540 O.3   10170  TIP10020    -0.4105
 49421 H1         -16.7440    30.9510   -32.0150 H     10170  TIP10020     0.2052
 49422 H2         -17.4860    29.9090   -31.2040 H     10170  TIP10020     0.2052
 49423 OH2          5.2650   -30.4280   -44.1300 O.3   10171  TIP10021    -0.4105
 49424 H1           5.4810   -31.1350   -44.7380 H     10171  TIP10021     0.2052
 49425 H2           5.1780   -29.6530   -44.6840 H     10171  TIP10021     0.2052
 49426 OH2        -30.0990   -27.6970    42.5000 O.3   10172  TIP10022    -0.4105
 49427 H1         -29.2400   -28.1090    42.5910 H     10172  TIP10022     0.2052
 49428 H2         -30.2110   -27.1960    43.3080 H     10172  TIP10022     0.2052
 49429 OH2         -1.6280    32.3210   -44.0850 O.3   10173  TIP10023    -0.4105
 49430 H1          -2.5590    32.3120   -43.8610 H     10173  TIP10023     0.2052
 49431 H2          -1.3730    33.2410   -44.0140 H     10173  TIP10023     0.2052
 49432 OH2         10.6500    -4.3200   -33.7920 O.3   10174  TIP10024    -0.4105
 49433 H1          11.1680    -3.8500   -33.1380 H     10174  TIP10024     0.2052
 49434 H2          10.5720    -3.7050   -34.5220 H     10174  TIP10024     0.2052
 49435 OH2          6.5070    15.7480    53.7210 O.3   10175  TIP10025    -0.4105
 49436 H1           5.7390    15.1940    53.5850 H     10175  TIP10025     0.2052
 49437 H2           7.0290    15.2780    54.3710 H     10175  TIP10025     0.2052
 49438 OH2        -19.7320     3.3820    29.0530 O.3   10176  TIP10026    -0.4105
 49439 H1         -19.1770     3.5510    29.8150 H     10176  TIP10026     0.2052
 49440 H2         -19.3230     2.6320    28.6210 H     10176  TIP10026     0.2052
 49441 OH2         -2.2420    15.5360   -30.2040 O.3   10177  TIP10027    -0.4105
 49442 H1          -2.1940    16.2690   -29.5900 H     10177  TIP10027     0.2052
 49443 H2          -1.4090    15.5620   -30.6740 H     10177  TIP10027     0.2052
 49444 OH2         11.0140   -22.8520    46.6190 O.3   10178  TIP10028    -0.4105
 49445 H1          10.4260   -23.5270    46.9580 H     10178  TIP10028     0.2052
 49446 H2          11.4240   -23.2540    45.8530 H     10178  TIP10028     0.2052
 49447 OH2        -14.1350   -28.5200    41.4210 O.3   10179  TIP10029    -0.4105
 49448 H1         -14.9350   -28.3180    40.9350 H     10179  TIP10029     0.2052
 49449 H2         -14.0790   -27.8340    42.0860 H     10179  TIP10029     0.2052
 49450 OH2          3.4520    32.8540    31.9350 O.3   10180  TIP10030    -0.4105
 49451 H1           4.1600    33.2940    31.4660 H     10180  TIP10030     0.2052
 49452 H2           3.2320    32.1010    31.3850 H     10180  TIP10030     0.2052
 49453 OH2        -13.2270    10.5140   -29.0330 O.3   10181  TIP10031    -0.4105
 49454 H1         -14.0700    10.8930   -29.2830 H     10181  TIP10031     0.2052
 49455 H2         -12.6170    11.2510   -29.0510 H     10181  TIP10031     0.2052
 49456 OH2          4.4160   -14.4580   -54.0630 O.3   10182  TIP10032    -0.4105
 49457 H1           4.4280   -14.2530   -53.1280 H     10182  TIP10032     0.2052
 49458 H2           4.4030   -15.4140   -54.0990 H     10182  TIP10032     0.2052
 49459 OH2         -7.6990    -9.9610    35.4680 O.3   10183  TIP10033    -0.4105
 49460 H1          -8.1330    -9.2700    35.9670 H     10183  TIP10033     0.2052
 49461 H2          -7.2060   -10.4560    36.1220 H     10183  TIP10033     0.2052
 49462 OH2        -17.1700     9.9930   -34.1610 O.3   10184  TIP10034    -0.4105
 49463 H1         -16.5950    10.3140   -34.8560 H     10184  TIP10034     0.2052
 49464 H2         -17.9940    10.4620   -34.2950 H     10184  TIP10034     0.2052
 49465 OH2         20.3650   -30.1230   -26.1950 O.3   10185  TIP10035    -0.4105
 49466 H1          20.1830   -29.9370   -27.1160 H     10185  TIP10035     0.2052
 49467 H2          20.2460   -31.0690   -26.1120 H     10185  TIP10035     0.2052
 49468 OH2        -19.9140    20.6750    22.4790 O.3   10186  TIP10036    -0.4105
 49469 H1         -19.0410    20.7230    22.0910 H     10186  TIP10036     0.2052
 49470 H2         -20.0480    19.7430    22.6530 H     10186  TIP10036     0.2052
 49471 OH2          4.4510    -6.7250   -22.0780 O.3   10187  TIP10037    -0.4105
 49472 H1           5.3910    -6.6710   -21.9050 H     10187  TIP10037     0.2052
 49473 H2           4.2050    -5.8390   -22.3440 H     10187  TIP10037     0.2052
 49474 OH2        -17.1290    -5.9350    44.1390 O.3   10188  TIP10038    -0.4105
 49475 H1         -16.6840    -6.7830    44.1110 H     10188  TIP10038     0.2052
 49476 H2         -17.9000    -6.0510    43.5850 H     10188  TIP10038     0.2052
 49477 OH2          5.7770     3.2480   -20.7570 O.3   10189  TIP10039    -0.4105
 49478 H1           4.9960     3.2780   -20.2050 H     10189  TIP10039     0.2052
 49479 H2           6.3200     3.9710   -20.4430 H     10189  TIP10039     0.2052
 49480 OH2         19.4160     8.9800    44.5230 O.3   10190  TIP10040    -0.4105
 49481 H1          19.1940     8.8310    45.4420 H     10190  TIP10040     0.2052
 49482 H2          19.2170     8.1490    44.0910 H     10190  TIP10040     0.2052
 49483 OH2         12.8420    10.8480    33.7000 O.3   10191  TIP10041    -0.4105
 49484 H1          12.2930    11.2640    33.0350 H     10191  TIP10041     0.2052
 49485 H2          12.3140    10.8710    34.4970 H     10191  TIP10041     0.2052
 49486 OH2         -5.8310    24.3020   -28.6740 O.3   10192  TIP10042    -0.4105
 49487 H1          -5.2110    23.7130   -28.2430 H     10192  TIP10042     0.2052
 49488 H2          -6.6490    24.1860   -28.1890 H     10192  TIP10042     0.2052
 49489 OH2         30.2890   -13.6970    41.7530 O.3   10193  TIP10043    -0.4105
 49490 H1          30.4220   -13.1830    40.9560 H     10193  TIP10043     0.2052
 49491 H2          29.4060   -14.0560    41.6620 H     10193  TIP10043     0.2052
 49492 OH2         -7.9280    -9.4620    40.1150 O.3   10194  TIP10044    -0.4105
 49493 H1          -8.3100    -9.0390    40.8840 H     10194  TIP10044     0.2052
 49494 H2          -7.3920    -8.7810    39.7090 H     10194  TIP10044     0.2052
 49495 OH2        -30.7220   -13.4700    16.8670 O.3   10195  TIP10045    -0.4105
 49496 H1         -30.3110   -13.4460    16.0030 H     10195  TIP10045     0.2052
 49497 H2         -31.5630   -13.9020    16.7210 H     10195  TIP10045     0.2052
 49498 OH2        -19.1490    15.9390    45.8200 O.3   10196  TIP10046    -0.4105
 49499 H1         -19.4380    15.2560    45.2150 H     10196  TIP10046     0.2052
 49500 H2         -18.4080    15.5500    46.2840 H     10196  TIP10046     0.2052
 49501 OH2        -23.5070    -4.5870   -27.4820 O.3   10197  TIP10047    -0.4105
 49502 H1         -23.2640    -5.0900   -26.7050 H     10197  TIP10047     0.2052
 49503 H2         -23.6010    -5.2420   -28.1730 H     10197  TIP10047     0.2052
 49504 OH2        -15.5950    10.0990    40.1930 O.3   10198  TIP10048    -0.4105
 49505 H1         -15.1780    10.6360    39.5200 H     10198  TIP10048     0.2052
 49506 H2         -16.2940     9.6350    39.7320 H     10198  TIP10048     0.2052
 49507 OH2         27.9410   -27.6810    39.4620 O.3   10199  TIP10049    -0.4105
 49508 H1          28.1190   -26.9260    38.9020 H     10199  TIP10049     0.2052
 49509 H2          28.8040   -27.9700    39.7570 H     10199  TIP10049     0.2052
 49510 OH2         22.8220    18.0280    44.4820 O.3   10200  TIP10050    -0.4105
 49511 H1          23.3230    18.8110    44.2540 H     10200  TIP10050     0.2052
 49512 H2          22.7940    17.5170    43.6740 H     10200  TIP10050     0.2052
 49513 OH2         28.1210    28.2360   -49.8240 O.3   10201  TIP10051    -0.4105
 49514 H1          27.8030    28.4240   -50.7070 H     10201  TIP10051     0.2052
 49515 H2          27.9970    27.2920   -49.7200 H     10201  TIP10051     0.2052
 49516 OH2         18.0390     2.6230   -30.9560 O.3   10202  TIP10052    -0.4105
 49517 H1          17.4940     1.8360   -30.9320 H     10202  TIP10052     0.2052
 49518 H2          18.6000     2.5510   -30.1840 H     10202  TIP10052     0.2052
 49519 OH2        -30.3380   -10.6990    52.0360 O.3   10203  TIP10053    -0.4105
 49520 H1         -29.9520    -9.8230    52.0160 H     10203  TIP10053     0.2052
 49521 H2         -29.7730   -11.2240    51.4680 H     10203  TIP10053     0.2052
 49522 OH2         30.8970   -13.8950   -49.4770 O.3   10204  TIP10054    -0.4105
 49523 H1          31.3130   -13.0340   -49.4510 H     10204  TIP10054     0.2052
 49524 H2          30.7280   -14.0520   -50.4060 H     10204  TIP10054     0.2052
 49525 OH2         21.2790    -3.9050    42.7290 O.3   10205  TIP10055    -0.4105
 49526 H1          21.6410    -4.4640    43.4160 H     10205  TIP10055     0.2052
 49527 H2          21.5780    -4.3030    41.9120 H     10205  TIP10055     0.2052
 49528 OH2          2.6420    23.3230    47.6830 O.3   10206  TIP10056    -0.4105
 49529 H1           3.2210    22.5600    47.6780 H     10206  TIP10056     0.2052
 49530 H2           3.1110    23.9840    47.1730 H     10206  TIP10056     0.2052
 49531 OH2         28.2100   -14.7730   -22.8890 O.3   10207  TIP10057    -0.4105
 49532 H1          28.0420   -13.9140   -22.5020 H     10207  TIP10057     0.2052
 49533 H2          28.6490   -15.2660   -22.1960 H     10207  TIP10057     0.2052
 49534 OH2        -11.8410    17.3870   -24.3640 O.3   10208  TIP10058    -0.4105
 49535 H1         -11.3560    18.0710   -24.8250 H     10208  TIP10058     0.2052
 49536 H2         -12.7600    17.5690   -24.5610 H     10208  TIP10058     0.2052
 49537 OH2         26.4610   -22.3330   -26.0250 O.3   10209  TIP10059    -0.4105
 49538 H1          26.1280   -21.5080   -26.3790 H     10209  TIP10059     0.2052
 49539 H2          27.2450   -22.5170   -26.5430 H     10209  TIP10059     0.2052
 49540 OH2        -15.8300   -15.5840    52.1890 O.3   10210  TIP10060    -0.4105
 49541 H1         -16.4320   -16.2680    51.8950 H     10210  TIP10060     0.2052
 49542 H2         -15.9740   -14.8600    51.5790 H     10210  TIP10060     0.2052
 49543 OH2        -18.5190    21.8030   -44.6420 O.3   10211  TIP10061    -0.4105
 49544 H1         -17.9430    22.5580   -44.7660 H     10211  TIP10061     0.2052
 49545 H2         -19.3910    22.1810   -44.5300 H     10211  TIP10061     0.2052
 49546 OH2         10.5480    -7.1580   -34.6160 O.3   10212  TIP10062    -0.4105
 49547 H1          10.6740    -6.3780   -34.0750 H     10212  TIP10062     0.2052
 49548 H2          10.3650    -6.8170   -35.4910 H     10212  TIP10062     0.2052
 49549 OH2        -18.0890   -15.4250   -22.2180 O.3   10213  TIP10063    -0.4105
 49550 H1         -17.9330   -15.4710   -21.2740 H     10213  TIP10063     0.2052
 49551 H2         -18.9310   -15.8630   -22.3430 H     10213  TIP10063     0.2052
 49552 OH2         24.4360    -6.8180   -51.3250 O.3   10214  TIP10064    -0.4105
 49553 H1          24.1500    -6.7450   -52.2360 H     10214  TIP10064     0.2052
 49554 H2          23.6980    -6.4850   -50.8140 H     10214  TIP10064     0.2052
 49555 OH2          5.9650    -0.2570   -25.9460 O.3   10215  TIP10065    -0.4105
 49556 H1           5.2750     0.3190   -25.6170 H     10215  TIP10065     0.2052
 49557 H2           5.7940    -0.3230   -26.8860 H     10215  TIP10065     0.2052
 49558 OH2        -33.0130     0.1640    54.6650 O.3   10216  TIP10066    -0.4105
 49559 H1         -33.5800     0.8570    55.0050 H     10216  TIP10066     0.2052
 49560 H2         -33.5860    -0.5990    54.5920 H     10216  TIP10066     0.2052
 49561 OH2        -11.7680   -22.9260    24.7560 O.3   10217  TIP10067    -0.4105
 49562 H1         -11.1470   -22.2400    24.5100 H     10217  TIP10067     0.2052
 49563 H2         -12.5620   -22.7180    24.2630 H     10217  TIP10067     0.2052
 49564 OH2        -10.9110    22.7620   -47.1820 O.3   10218  TIP10068    -0.4105
 49565 H1         -10.5700    22.4360   -46.3480 H     10218  TIP10068     0.2052
 49566 H2         -11.3130    21.9960   -47.5920 H     10218  TIP10068     0.2052
 49567 OH2         22.9560     9.9370    19.8190 O.3   10219  TIP10069    -0.4105
 49568 H1          22.9840     9.0160    19.5580 H     10219  TIP10069     0.2052
 49569 H2          23.7960    10.2940    19.5320 H     10219  TIP10069     0.2052
 49570 OH2         -9.3890   -20.5840    35.0530 O.3   10220  TIP10070    -0.4105
 49571 H1          -9.6680   -20.4700    35.9610 H     10220  TIP10070     0.2052
 49572 H2          -9.8640   -21.3590    34.7510 H     10220  TIP10070     0.2052
 49573 OH2        -16.4260    25.2790   -40.9460 O.3   10221  TIP10071    -0.4105
 49574 H1         -15.5950    25.6330   -41.2630 H     10221  TIP10071     0.2052
 49575 H2         -16.3550    25.3170   -39.9920 H     10221  TIP10071     0.2052
 49576 OH2         25.0560    -4.5780    23.2600 O.3   10222  TIP10072    -0.4105
 49577 H1          24.6020    -4.1250    22.5490 H     10222  TIP10072     0.2052
 49578 H2          24.4200    -4.5980    23.9750 H     10222  TIP10072     0.2052
 49579 OH2         -7.2330    25.5820    25.1370 O.3   10223  TIP10073    -0.4105
 49580 H1          -7.9400    25.8840    25.7060 H     10223  TIP10073     0.2052
 49581 H2          -7.5270    24.7280    24.8210 H     10223  TIP10073     0.2052
 49582 OH2         14.0360    21.7620    52.3120 O.3   10224  TIP10074    -0.4105
 49583 H1          14.7870    21.2020    52.5060 H     10224  TIP10074     0.2052
 49584 H2          13.4270    21.1920    51.8420 H     10224  TIP10074     0.2052
 49585 OH2         14.7660     5.5540   -51.5710 O.3   10225  TIP10075    -0.4105
 49586 H1          15.6600     5.8940   -51.5340 H     10225  TIP10075     0.2052
 49587 H2          14.2790     6.0880   -50.9430 H     10225  TIP10075     0.2052
 49588 OH2        -24.0230    15.5110   -35.2840 O.3   10226  TIP10076    -0.4105
 49589 H1         -24.1970    16.1810   -35.9440 H     10226  TIP10076     0.2052
 49590 H2         -23.0700    15.4250   -35.2750 H     10226  TIP10076     0.2052
 49591 OH2        -13.9610    -3.3810    29.0890 O.3   10227  TIP10077    -0.4105
 49592 H1         -13.4170    -3.5250    28.3150 H     10227  TIP10077     0.2052
 49593 H2         -14.8460    -3.2700    28.7430 H     10227  TIP10077     0.2052
 49594 OH2         29.7460   -19.3070   -46.0200 O.3   10228  TIP10078    -0.4105
 49595 H1          29.1060   -19.9790   -46.2560 H     10228  TIP10078     0.2052
 49596 H2          30.1160   -19.0240   -46.8560 H     10228  TIP10078     0.2052
 49597 OH2         14.7150   -23.0040    38.5440 O.3   10229  TIP10079    -0.4105
 49598 H1          15.1140   -23.8730    38.4980 H     10229  TIP10079     0.2052
 49599 H2          14.5430   -22.8670    39.4750 H     10229  TIP10079     0.2052
 49600 OH2          4.3790     1.2970   -50.6290 O.3   10230  TIP10080    -0.4105
 49601 H1           3.6330     1.8790   -50.7700 H     10230  TIP10080     0.2052
 49602 H2           5.0960     1.7040   -51.1160 H     10230  TIP10080     0.2052
 49603 OH2         10.7100   -17.8440   -45.9870 O.3   10231  TIP10081    -0.4105
 49604 H1          10.6040   -18.2890   -46.8280 H     10231  TIP10081     0.2052
 49605 H2          10.8410   -18.5530   -45.3560 H     10231  TIP10081     0.2052
 49606 OH2          8.2740   -15.8700   -25.4000 O.3   10232  TIP10082    -0.4105
 49607 H1           8.5830   -15.4080   -26.1800 H     10232  TIP10082     0.2052
 49608 H2           8.3800   -16.7970   -25.6130 H     10232  TIP10082     0.2052
 49609 OH2         -9.6530     7.6180   -18.8960 O.3   10233  TIP10083    -0.4105
 49610 H1          -8.7040     7.6420   -18.7750 H     10233  TIP10083     0.2052
 49611 H2         -10.0050     8.0640   -18.1250 H     10233  TIP10083     0.2052
 49612 OH2         32.6150    15.9710    21.9440 O.3   10234  TIP10084    -0.4105
 49613 H1          32.4190    15.0350    21.9890 H     10234  TIP10084     0.2052
 49614 H2          33.4390    16.0210    21.4610 H     10234  TIP10084     0.2052
 49615 OH2         17.8510    29.8830   -49.0730 O.3   10235  TIP10085    -0.4105
 49616 H1          18.5680    30.2100   -48.5290 H     10235  TIP10085     0.2052
 49617 H2          17.2330    29.4980   -48.4510 H     10235  TIP10085     0.2052
 49618 OH2        -21.2840    28.5650    32.0050 O.3   10236  TIP10086    -0.4105
 49619 H1         -21.6210    28.5000    32.8980 H     10236  TIP10086     0.2052
 49620 H2         -22.0640    28.6760    31.4610 H     10236  TIP10086     0.2052
 49621 OH2          5.2320    -8.0490    53.0790 O.3   10237  TIP10087    -0.4105
 49622 H1           4.8700    -7.1640    53.1240 H     10237  TIP10087     0.2052
 49623 H2           5.6040    -8.2010    53.9480 H     10237  TIP10087     0.2052
 49624 OH2         23.2390     0.3840    37.3880 O.3   10238  TIP10088    -0.4105
 49625 H1          23.2950     0.2380    38.3320 H     10238  TIP10088     0.2052
 49626 H2          24.1470     0.5000    37.1080 H     10238  TIP10088     0.2052
 49627 OH2         23.6920    32.4550   -32.7390 O.3   10239  TIP10089    -0.4105
 49628 H1          24.1580    32.1240   -33.5070 H     10239  TIP10089     0.2052
 49629 H2          24.2920    33.0910   -32.3500 H     10239  TIP10089     0.2052
 49630 OH2          5.4890   -21.1660    24.5570 O.3   10240  TIP10090    -0.4105
 49631 H1           4.6160   -20.8280    24.3590 H     10240  TIP10090     0.2052
 49632 H2           5.9520   -21.1390    23.7200 H     10240  TIP10090     0.2052
 49633 OH2        -24.0080   -22.6760    24.0180 O.3   10241  TIP10091    -0.4105
 49634 H1         -24.5770   -21.9280    24.1980 H     10241  TIP10091     0.2052
 49635 H2         -24.3570   -23.0540    23.2110 H     10241  TIP10091     0.2052
 49636 OH2         28.9090    14.4930   -34.5230 O.3   10242  TIP10092    -0.4105
 49637 H1          28.0880    14.3700   -34.0470 H     10242  TIP10092     0.2052
 49638 H2          29.2890    15.2850   -34.1440 H     10242  TIP10092     0.2052
 49639 OH2        -10.4830   -23.2210    50.8970 O.3   10243  TIP10093    -0.4105
 49640 H1         -11.2910   -23.0170    51.3670 H     10243  TIP10093     0.2052
 49641 H2          -9.7840   -22.9490    51.4910 H     10243  TIP10093     0.2052
 49642 OH2          9.6370    28.0420    47.5250 O.3   10244  TIP10094    -0.4105
 49643 H1           9.7680    28.8920    47.1070 H     10244  TIP10094     0.2052
 49644 H2          10.4740    27.5910    47.4210 H     10244  TIP10094     0.2052
 49645 OH2        -12.9450    -0.5560    37.7590 O.3   10245  TIP10095    -0.4105
 49646 H1         -13.0140    -0.1100    36.9150 H     10245  TIP10095     0.2052
 49647 H2         -12.5440    -1.4000    37.5520 H     10245  TIP10095     0.2052
 49648 OH2         25.0990   -19.4120    29.5500 O.3   10246  TIP10096    -0.4105
 49649 H1          25.3030   -19.9560    28.7890 H     10246  TIP10096     0.2052
 49650 H2          25.8190   -19.5730    30.1600 H     10246  TIP10096     0.2052
 49651 OH2         33.0320    -2.8520   -40.7980 O.3   10247  TIP10097    -0.4105
 49652 H1          32.7370    -2.4020   -40.0060 H     10247  TIP10097     0.2052
 49653 H2          32.9520    -2.1950   -41.4900 H     10247  TIP10097     0.2052
 49654 OH2         15.9900    -2.5940   -20.2230 O.3   10248  TIP10098    -0.4105
 49655 H1          15.5880    -3.0620   -20.9550 H     10248  TIP10098     0.2052
 49656 H2          15.8930    -3.1860   -19.4770 H     10248  TIP10098     0.2052
 49657 OH2         21.7530     3.7710    45.5680 O.3   10249  TIP10099    -0.4105
 49658 H1          21.9370     2.9220    45.9700 H     10249  TIP10099     0.2052
 49659 H2          20.8680     3.9890    45.8610 H     10249  TIP10099     0.2052
 49660 OH2        -19.7050     8.8790    36.3390 O.3   10250  TIP10100    -0.4105
 49661 H1         -19.3900     9.7660    36.5170 H     10250  TIP10100     0.2052
 49662 H2         -19.5090     8.3900    37.1390 H     10250  TIP10100     0.2052
 49663 OH2        -28.4860    14.9260   -44.1220 O.3   10251  TIP10101    -0.4105
 49664 H1         -29.0590    14.1810   -44.3020 H     10251  TIP10101     0.2052
 49665 H2         -28.0050    14.6740   -43.3340 H     10251  TIP10101     0.2052
 49666 OH2          5.8950    15.8180    49.5140 O.3   10252  TIP10102    -0.4105
 49667 H1           6.7310    16.2850    49.4940 H     10252  TIP10102     0.2052
 49668 H2           5.7800    15.4930    48.6210 H     10252  TIP10102     0.2052
 49669 OH2         17.1380    27.8270   -52.8720 O.3   10253  TIP10103    -0.4105
 49670 H1          17.8210    27.1570   -52.8710 H     10253  TIP10103     0.2052
 49671 H2          17.6160    28.6570   -52.8640 H     10253  TIP10103     0.2052
 49672 OH2         20.4950    31.6720   -49.8090 O.3   10254  TIP10104    -0.4105
 49673 H1          19.9920    32.4590   -49.6000 H     10254  TIP10104     0.2052
 49674 H2          20.2490    31.0430   -49.1310 H     10254  TIP10104     0.2052
 49675 OH2        -11.1380    28.9420    51.0430 O.3   10255  TIP10105    -0.4105
 49676 H1         -11.7590    29.6700    51.0180 H     10255  TIP10105     0.2052
 49677 H2         -10.3690    29.2660    50.5750 H     10255  TIP10105     0.2052
 49678 OH2         20.0470    13.1970    26.3180 O.3   10256  TIP10106    -0.4105
 49679 H1          19.4750    13.4380    25.5890 H     10256  TIP10106     0.2052
 49680 H2          20.8670    13.6580    26.1410 H     10256  TIP10106     0.2052
 49681 OH2         17.1390   -31.0810   -50.1980 O.3   10257  TIP10107    -0.4105
 49682 H1          17.9080   -31.4260   -50.6520 H     10257  TIP10107     0.2052
 49683 H2          17.3880   -30.1910   -49.9480 H     10257  TIP10107     0.2052
 49684 OH2        -12.6230   -23.6250    55.2550 O.3   10258  TIP10108    -0.4105
 49685 H1         -11.9080   -23.6420    55.8910 H     10258  TIP10108     0.2052
 49686 H2         -12.7960   -24.5470    55.0630 H     10258  TIP10108     0.2052
 49687 OH2        -17.3650    12.0210    41.6540 O.3   10259  TIP10109    -0.4105
 49688 H1         -16.9730    11.3100    41.1470 H     10259  TIP10109     0.2052
 49689 H2         -17.5780    11.6240    42.4990 H     10259  TIP10109     0.2052
 49690 OH2        -29.7730   -13.3000    36.6470 O.3   10260  TIP10110    -0.4105
 49691 H1         -30.2780   -12.8080    35.9990 H     10260  TIP10110     0.2052
 49692 H2         -30.0730   -12.9620    37.4910 H     10260  TIP10110     0.2052
 49693 OH2        -17.6990   -27.0420    30.7220 O.3   10261  TIP10111    -0.4105
 49694 H1         -17.1940   -27.1420    31.5290 H     10261  TIP10111     0.2052
 49695 H2         -17.0820   -27.2590    30.0240 H     10261  TIP10111     0.2052
 49696 OH2         19.6550     9.6860    37.2420 O.3   10262  TIP10112    -0.4105
 49697 H1          19.7680     9.9800    36.3390 H     10262  TIP10112     0.2052
 49698 H2          20.1050    10.3480    37.7680 H     10262  TIP10112     0.2052
 49699 OH2         19.6460    23.6050   -36.5270 O.3   10263  TIP10113    -0.4105
 49700 H1          19.3100    23.3770   -37.3930 H     10263  TIP10113     0.2052
 49701 H2          19.2930    24.4780   -36.3540 H     10263  TIP10113     0.2052
 49702 OH2         -9.1240    -7.8920   -40.8410 O.3   10264  TIP10114    -0.4105
 49703 H1          -9.8500    -7.2680   -40.8530 H     10264  TIP10114     0.2052
 49704 H2          -8.7690    -7.8300   -39.9540 H     10264  TIP10114     0.2052
 49705 OH2        -20.8350    10.1800   -40.0110 O.3   10265  TIP10115    -0.4105
 49706 H1         -21.6320    10.7080   -40.0550 H     10265  TIP10115     0.2052
 49707 H2         -20.2650    10.5470   -40.6860 H     10265  TIP10115     0.2052
 49708 OH2        -14.9750     4.5730    43.1980 O.3   10266  TIP10116    -0.4105
 49709 H1         -15.0240     5.1970    42.4730 H     10266  TIP10116     0.2052
 49710 H2         -14.2700     4.9070    43.7540 H     10266  TIP10116     0.2052
 49711 OH2        -25.2380    28.6550    46.0180 O.3   10267  TIP10117    -0.4105
 49712 H1         -25.4810    29.0810    46.8410 H     10267  TIP10117     0.2052
 49713 H2         -24.5140    29.1820    45.6800 H     10267  TIP10117     0.2052
 49714 OH2         29.5730    -4.4330   -33.7700 O.3   10268  TIP10118    -0.4105
 49715 H1          28.6930    -4.7330   -33.9960 H     10268  TIP10118     0.2052
 49716 H2          30.1170    -5.2180   -33.8250 H     10268  TIP10118     0.2052
 49717 OH2         19.6650     1.2360   -28.9370 O.3   10269  TIP10119    -0.4105
 49718 H1          20.0000     0.9770   -28.0790 H     10269  TIP10119     0.2052
 49719 H2          19.4080     0.4130   -29.3530 H     10269  TIP10119     0.2052
 49720 OH2        -22.8070    -1.6990   -45.7530 O.3   10270  TIP10120    -0.4105
 49721 H1         -23.0440    -2.4750   -46.2590 H     10270  TIP10120     0.2052
 49722 H2         -22.6700    -2.0240   -44.8640 H     10270  TIP10120     0.2052
 49723 OH2         -7.4630    26.6880   -46.6290 O.3   10271  TIP10121    -0.4105
 49724 H1          -6.5200    26.5320   -46.5820 H     10271  TIP10121     0.2052
 49725 H2          -7.5600    27.6260   -46.4640 H     10271  TIP10121     0.2052
 49726 OH2         12.0900    17.0530   -30.1700 O.3   10272  TIP10122    -0.4105
 49727 H1          11.3050    16.5750   -29.9030 H     10272  TIP10122     0.2052
 49728 H2          11.8260    17.5280   -30.9580 H     10272  TIP10122     0.2052
 49729 OH2        -13.0860    -3.8840   -54.0870 O.3   10273  TIP10123    -0.4105
 49730 H1         -12.2810    -4.0280   -54.5840 H     10273  TIP10123     0.2052
 49731 H2         -12.9290    -4.3150   -53.2460 H     10273  TIP10123     0.2052
 49732 OH2         32.5240    10.1670    31.9990 O.3   10274  TIP10124    -0.4105
 49733 H1          31.9190    10.8900    31.8360 H     10274  TIP10124     0.2052
 49734 H2          32.6170    10.1410    32.9510 H     10274  TIP10124     0.2052
 49735 OH2         20.8440    23.8970    45.5810 O.3   10275  TIP10125    -0.4105
 49736 H1          21.2920    24.0150    46.4190 H     10275  TIP10125     0.2052
 49737 H2          19.9630    23.6080    45.8180 H     10275  TIP10125     0.2052
 49738 OH2         17.8470   -22.5860   -45.6130 O.3   10276  TIP10126    -0.4105
 49739 H1          17.9630   -23.2530   -46.2890 H     10276  TIP10126     0.2052
 49740 H2          17.4250   -23.0490   -44.8890 H     10276  TIP10126     0.2052
 49741 OH2          4.0170    -2.5540    50.1070 O.3   10277  TIP10127    -0.4105
 49742 H1           4.3590    -1.8870    50.7030 H     10277  TIP10127     0.2052
 49743 H2           3.1870    -2.1940    49.7950 H     10277  TIP10127     0.2052
 49744 OH2         18.8320    16.4670    53.7880 O.3   10278  TIP10128    -0.4105
 49745 H1          19.0720    17.3890    53.6930 H     10278  TIP10128     0.2052
 49746 H2          19.6340    16.0400    54.0900 H     10278  TIP10128     0.2052
 49747 OH2        -20.8930    19.9670   -50.7470 O.3   10279  TIP10129    -0.4105
 49748 H1         -21.4370    20.5060   -51.3220 H     10279  TIP10129     0.2052
 49749 H2         -21.2940    20.0580   -49.8820 H     10279  TIP10129     0.2052
 49750 OH2          1.6170     5.4560   -35.0910 O.3   10280  TIP10130    -0.4105
 49751 H1           1.1980     6.1270   -34.5510 H     10280  TIP10130     0.2052
 49752 H2           1.7590     5.8820   -35.9360 H     10280  TIP10130     0.2052
 49753 OH2         -3.7760   -12.0650    39.0680 O.3   10281  TIP10131    -0.4105
 49754 H1          -2.8830   -11.7240    39.1230 H     10281  TIP10131     0.2052
 49755 H2          -4.3310   -11.3280    39.3250 H     10281  TIP10131     0.2052
 49756 OH2        -13.7950    16.7270    51.0460 O.3   10282  TIP10132    -0.4105
 49757 H1         -14.6180    16.7520    50.5570 H     10282  TIP10132     0.2052
 49758 H2         -13.4980    15.8200    50.9690 H     10282  TIP10132     0.2052
 49759 OH2         16.2380    -7.0870    20.6520 O.3   10283  TIP10133    -0.4105
 49760 H1          15.4470    -6.5950    20.4320 H     10283  TIP10133     0.2052
 49761 H2          16.9270    -6.6790    20.1270 H     10283  TIP10133     0.2052
 49762 OH2        -27.7760   -26.4170   -41.2350 O.3   10284  TIP10134    -0.4105
 49763 H1         -28.2160   -25.6380   -40.8940 H     10284  TIP10134     0.2052
 49764 H2         -28.1080   -27.1360   -40.6980 H     10284  TIP10134     0.2052
 49765 OH2         30.3160   -12.8440    24.0300 O.3   10285  TIP10135    -0.4105
 49766 H1          29.7000   -12.1110    24.0150 H     10285  TIP10135     0.2052
 49767 H2          30.9660   -12.5990    24.6880 H     10285  TIP10135     0.2052
 49768 OH2         23.3670   -29.6700   -34.9790 O.3   10286  TIP10136    -0.4105
 49769 H1          23.1190   -28.7520   -34.8660 H     10286  TIP10136     0.2052
 49770 H2          24.3060   -29.6880   -34.7990 H     10286  TIP10136     0.2052
 49771 OH2        -28.7040    26.8370   -34.6090 O.3   10287  TIP10137    -0.4105
 49772 H1         -27.9440    26.4140   -34.2080 H     10287  TIP10137     0.2052
 49773 H2         -28.6490    27.7490   -34.3220 H     10287  TIP10137     0.2052
 49774 OH2        -20.2680    29.6860    21.8720 O.3   10288  TIP10138    -0.4105
 49775 H1         -19.6630    29.6690    21.1300 H     10288  TIP10138     0.2052
 49776 H2         -21.1340    29.7680    21.4730 H     10288  TIP10138     0.2052
 49777 OH2        -27.2400    -9.3090   -48.7150 O.3   10289  TIP10139    -0.4105
 49778 H1         -26.2880    -9.2190   -48.6810 H     10289  TIP10139     0.2052
 49779 H2         -27.5640    -8.4110   -48.7860 H     10289  TIP10139     0.2052
 49780 OH2        -16.7630    -4.0990    40.4840 O.3   10290  TIP10140    -0.4105
 49781 H1         -16.6400    -3.3660    39.8810 H     10290  TIP10140     0.2052
 49782 H2         -17.1340    -4.7950    39.9410 H     10290  TIP10140     0.2052
 49783 OH2        -21.6040    -1.0770    33.1130 O.3   10291  TIP10141    -0.4105
 49784 H1         -20.6840    -1.0230    33.3740 H     10291  TIP10141     0.2052
 49785 H2         -21.7950    -2.0150    33.1040 H     10291  TIP10141     0.2052
 49786 OH2          6.9250   -11.6810   -54.7770 O.3   10292  TIP10142    -0.4105
 49787 H1           7.3350   -11.7000   -55.6420 H     10292  TIP10142     0.2052
 49788 H2           7.5760   -12.0720   -54.1940 H     10292  TIP10142     0.2052
 49789 OH2         -9.0620   -25.4580    28.1620 O.3   10293  TIP10143    -0.4105
 49790 H1          -8.2500   -25.0110    27.9220 H     10293  TIP10143     0.2052
 49791 H2          -9.0300   -25.5180    29.1160 H     10293  TIP10143     0.2052
 49792 OH2          6.4460    16.9390   -44.1140 O.3   10294  TIP10144    -0.4105
 49793 H1           6.7610    16.1900   -44.6190 H     10294  TIP10144     0.2052
 49794 H2           6.7190    17.7030   -44.6210 H     10294  TIP10144     0.2052
 49795 OH2        -25.4710     7.1320   -31.5330 O.3   10295  TIP10145    -0.4105
 49796 H1         -24.6470     7.2250   -31.0560 H     10295  TIP10145     0.2052
 49797 H2         -25.8580     6.3270   -31.1880 H     10295  TIP10145     0.2052
 49798 OH2        -32.0880   -16.3520    15.9520 O.3   10296  TIP10146    -0.4105
 49799 H1         -32.5070   -15.9340    15.2000 H     10296  TIP10146     0.2052
 49800 H2         -32.6620   -16.1480    16.6900 H     10296  TIP10146     0.2052
 49801 OH2          6.8380    19.1030   -46.1250 O.3   10297  TIP10147    -0.4105
 49802 H1           6.6180    19.4220   -47.0000 H     10297  TIP10147     0.2052
 49803 H2           6.3620    19.6840   -45.5310 H     10297  TIP10147     0.2052
 49804 OH2         17.6720    16.3700    44.1020 O.3   10298  TIP10148    -0.4105
 49805 H1          18.0990    17.2250    44.1630 H     10298  TIP10148     0.2052
 49806 H2          16.9170    16.5190    43.5330 H     10298  TIP10148     0.2052
 49807 OH2         14.8020   -20.1620    25.0170 O.3   10299  TIP10149    -0.4105
 49808 H1          14.5270   -20.3140    24.1130 H     10299  TIP10149     0.2052
 49809 H2          13.9840   -20.0670    25.5040 H     10299  TIP10149     0.2052
 49810 OH2        -22.6300   -23.9980    44.9670 O.3   10300  TIP10150    -0.4105
 49811 H1         -22.2770   -23.5220    45.7190 H     10300  TIP10150     0.2052
 49812 H2         -22.5010   -24.9210    45.1860 H     10300  TIP10150     0.2052
 49813 OH2          1.4650    29.9680   -55.2610 O.3   10301  TIP10151    -0.4105
 49814 H1           1.8030    30.2650   -56.1060 H     10301  TIP10151     0.2052
 49815 H2           0.7350    29.3900   -55.4850 H     10301  TIP10151     0.2052
 49816 OH2         -4.3770   -11.9550   -51.0320 O.3   10302  TIP10152    -0.4105
 49817 H1          -3.5000   -12.2910   -50.8500 H     10302  TIP10152     0.2052
 49818 H2          -4.4460   -11.1620   -50.4990 H     10302  TIP10152     0.2052
 49819 OH2        -15.9700    -8.4050    43.9530 O.3   10303  TIP10153    -0.4105
 49820 H1         -15.1360    -8.0110    43.6980 H     10303  TIP10153     0.2052
 49821 H2         -15.9250    -9.3000    43.6170 H     10303  TIP10153     0.2052
 49822 OH2        -23.6310    27.7620    33.5920 O.3   10304  TIP10154    -0.4105
 49823 H1         -23.8150    27.4140    32.7190 H     10304  TIP10154     0.2052
 49824 H2         -23.0910    27.0900    34.0090 H     10304  TIP10154     0.2052
 49825 OH2        -16.1610     2.5590    37.6890 O.3   10305  TIP10155    -0.4105
 49826 H1         -16.7920     3.0890    37.2030 H     10305  TIP10155     0.2052
 49827 H2         -15.3170     2.9820    37.5270 H     10305  TIP10155     0.2052
 49828 OH2         30.3730    10.9280   -27.7710 O.3   10306  TIP10156    -0.4105
 49829 H1          30.7650    10.0860   -28.0050 H     10306  TIP10156     0.2052
 49830 H2          30.4210    11.4460   -28.5750 H     10306  TIP10156     0.2052
 49831 OH2        -26.2940     1.1570   -14.4810 O.3   10307  TIP10157    -0.4105
 49832 H1         -25.4670     0.6780   -14.5390 H     10307  TIP10157     0.2052
 49833 H2         -26.0480     2.0230   -14.1590 H     10307  TIP10157     0.2052
 49834 OH2         22.4300   -30.0250   -22.0920 O.3   10308  TIP10158    -0.4105
 49835 H1          21.4970   -29.8360   -22.1910 H     10308  TIP10158     0.2052
 49836 H2          22.4950   -30.4830   -21.2530 H     10308  TIP10158     0.2052
 49837 OH2         -0.3550   -27.7460    37.0180 O.3   10309  TIP10159    -0.4105
 49838 H1          -0.1410   -27.3020    36.1970 H     10309  TIP10159     0.2052
 49839 H2          -0.4350   -27.0390    37.6590 H     10309  TIP10159     0.2052
 49840 OH2         24.0940    -8.1160   -40.8760 O.3   10310  TIP10160    -0.4105
 49841 H1          24.4730    -8.0510   -39.9990 H     10310  TIP10160     0.2052
 49842 H2          24.6850    -7.6080   -41.4310 H     10310  TIP10160     0.2052
 49843 OH2          5.7540   -16.6930   -35.2750 O.3   10311  TIP10161    -0.4105
 49844 H1           5.5050   -15.7800   -35.4210 H     10311  TIP10161     0.2052
 49845 H2           5.8870   -16.7570   -34.3290 H     10311  TIP10161     0.2052
 49846 OH2         -7.9610   -10.5280    23.9780 O.3   10312  TIP10162    -0.4105
 49847 H1          -7.9200   -10.3320    23.0420 H     10312  TIP10162     0.2052
 49848 H2          -8.7640   -10.1020    24.2780 H     10312  TIP10162     0.2052
 49849 OH2         -1.9820   -13.6580   -19.0380 O.3   10313  TIP10163    -0.4105
 49850 H1          -2.2550   -12.8650   -19.5000 H     10313  TIP10163     0.2052
 49851 H2          -2.3330   -13.5520   -18.1530 H     10313  TIP10163     0.2052
 49852 OH2        -28.4530   -19.1660    43.3620 O.3   10314  TIP10164    -0.4105
 49853 H1         -28.7350   -18.2540    43.2870 H     10314  TIP10164     0.2052
 49854 H2         -27.6990   -19.2330    42.7770 H     10314  TIP10164     0.2052
 49855 OH2        -30.9030    22.7580    33.8640 O.3   10315  TIP10165    -0.4105
 49856 H1         -30.8260    23.5280    33.3000 H     10315  TIP10165     0.2052
 49857 H2         -31.7460    22.8660    34.3030 H     10315  TIP10165     0.2052
 49858 OH2          0.8090     7.7070    25.3280 O.3   10316  TIP10166    -0.4105
 49859 H1           0.9330     8.6050    25.0190 H     10316  TIP10166     0.2052
 49860 H2           1.3560     7.1770    24.7490 H     10316  TIP10166     0.2052
 49861 OH2         15.9460   -23.3800    54.1860 O.3   10317  TIP10167    -0.4105
 49862 H1          15.3960   -24.1490    54.3340 H     10317  TIP10167     0.2052
 49863 H2          15.8660   -23.2050    53.2490 H     10317  TIP10167     0.2052
 49864 OH2        -22.2710    29.6000   -35.8560 O.3   10318  TIP10168    -0.4105
 49865 H1         -21.5150    29.3690   -36.3960 H     10318  TIP10168     0.2052
 49866 H2         -22.1360    30.5210   -35.6340 H     10318  TIP10168     0.2052
 49867 OH2          4.8330    28.9110    18.9560 O.3   10319  TIP10169    -0.4105
 49868 H1           4.1330    28.2600    18.9950 H     10319  TIP10169     0.2052
 49869 H2           4.6520    29.4100    18.1580 H     10319  TIP10169     0.2052
 49870 OH2        -23.7440   -27.7240   -34.8580 O.3   10320  TIP10170    -0.4105
 49871 H1         -24.3930   -27.0230   -34.9180 H     10320  TIP10170     0.2052
 49872 H2         -24.1170   -28.3430   -34.2310 H     10320  TIP10170     0.2052
 49873 OH2         32.6360    19.1770   -33.7360 O.3   10321  TIP10171    -0.4105
 49874 H1          32.6180    20.0420   -34.1450 H     10321  TIP10171     0.2052
 49875 H2          32.1350    18.6200   -34.3320 H     10321  TIP10171     0.2052
 49876 OH2        -20.5660    21.3690    52.1650 O.3   10322  TIP10172    -0.4105
 49877 H1         -20.8150    22.1070    52.7210 H     10322  TIP10172     0.2052
 49878 H2         -19.8760    21.7170    51.6000 H     10322  TIP10172     0.2052
 49879 OH2        -27.8210   -13.9520    22.4510 O.3   10323  TIP10173    -0.4105
 49880 H1         -27.1220   -13.8560    21.8040 H     10323  TIP10173     0.2052
 49881 H2         -28.3470   -13.1580    22.3570 H     10323  TIP10173     0.2052
 49882 OH2         11.9590    28.8680    51.3850 O.3   10324  TIP10174    -0.4105
 49883 H1          11.6870    28.4820    52.2170 H     10324  TIP10174     0.2052
 49884 H2          11.2490    29.4680    51.1550 H     10324  TIP10174     0.2052
 49885 OH2        -10.2640    29.5270    25.4800 O.3   10325  TIP10175    -0.4105
 49886 H1          -9.9450    29.0530    24.7120 H     10325  TIP10175     0.2052
 49887 H2          -9.5410    30.1050    25.7230 H     10325  TIP10175     0.2052
 49888 OH2        -17.3860     6.5790   -28.3950 O.3   10326  TIP10176    -0.4105
 49889 H1         -17.0270     7.3900   -28.7540 H     10326  TIP10176     0.2052
 49890 H2         -16.7740     5.9000   -28.6780 H     10326  TIP10176     0.2052
 49891 OH2         22.5390    28.6170    33.8360 O.3   10327  TIP10177    -0.4105
 49892 H1          22.2780    29.4910    34.1260 H     10327  TIP10177     0.2052
 49893 H2          23.2470    28.7730    33.2110 H     10327  TIP10177     0.2052
 49894 OH2        -18.0890     5.1910   -23.5790 O.3   10328  TIP10178    -0.4105
 49895 H1         -17.4900     5.7580   -24.0640 H     10328  TIP10178     0.2052
 49896 H2         -18.3120     4.4940   -24.1960 H     10328  TIP10178     0.2052
 49897 OH2         25.6910   -17.3530   -37.2880 O.3   10329  TIP10179    -0.4105
 49898 H1          25.4830   -17.0270   -36.4130 H     10329  TIP10179     0.2052
 49899 H2          26.3100   -16.7140   -37.6410 H     10329  TIP10179     0.2052
 49900 OH2         -0.9450   -16.5960    34.5070 O.3   10330  TIP10180    -0.4105
 49901 H1          -0.3890   -16.5360    35.2830 H     10330  TIP10180     0.2052
 49902 H2          -0.3520   -16.8640    33.8050 H     10330  TIP10180     0.2052
 49903 OH2         -9.4510    22.8020   -52.9460 O.3   10331  TIP10181    -0.4105
 49904 H1         -10.0280    22.3690   -52.3170 H     10331  TIP10181     0.2052
 49905 H2          -8.5900    22.7940   -52.5260 H     10331  TIP10181     0.2052
 49906 OH2         26.8350    29.2300    47.1850 O.3   10332  TIP10182    -0.4105
 49907 H1          26.1980    28.5520    46.9570 H     10332  TIP10182     0.2052
 49908 H2          26.5500    29.5480    48.0420 H     10332  TIP10182     0.2052
 49909 OH2         26.2930   -22.6690   -47.1810 O.3   10333  TIP10183    -0.4105
 49910 H1          26.3980   -23.3220   -46.4890 H     10333  TIP10183     0.2052
 49911 H2          25.4170   -22.8310   -47.5320 H     10333  TIP10183     0.2052
 49912 OH2         10.8600    -4.0760   -12.7260 O.3   10334  TIP10184    -0.4105
 49913 H1          10.1810    -3.5010   -12.3720 H     10334  TIP10184     0.2052
 49914 H2          11.6530    -3.8320   -12.2470 H     10334  TIP10184     0.2052
 49915 OH2        -10.4030    11.7310   -19.7530 O.3   10335  TIP10185    -0.4105
 49916 H1         -10.3020    11.5930   -18.8110 H     10335  TIP10185     0.2052
 49917 H2          -9.9270    12.5430   -19.9290 H     10335  TIP10185     0.2052
 49918 OH2        -22.0910     7.5480    35.7360 O.3   10336  TIP10186    -0.4105
 49919 H1         -21.3320     8.1260    35.8050 H     10336  TIP10186     0.2052
 49920 H2         -21.7210     6.6880    35.5350 H     10336  TIP10186     0.2052
 49921 OH2        -25.9380   -29.8360   -40.8630 O.3   10337  TIP10187    -0.4105
 49922 H1         -25.8050   -30.3320   -40.0560 H     10337  TIP10187     0.2052
 49923 H2         -26.7930   -29.4200   -40.7520 H     10337  TIP10187     0.2052
 49924 OH2        -10.0250     8.6650   -27.3870 O.3   10338  TIP10188    -0.4105
 49925 H1          -9.1880     8.6650   -27.8510 H     10338  TIP10188     0.2052
 49926 H2          -9.7910     8.5130   -26.4710 H     10338  TIP10188     0.2052
 49927 OH2         31.5420    10.2720    25.4090 O.3   10339  TIP10189    -0.4105
 49928 H1          31.8160    10.1540    24.5000 H     10339  TIP10189     0.2052
 49929 H2          31.3330    11.2030    25.4780 H     10339  TIP10189     0.2052
 49930 OH2          9.1720    22.4230   -22.1040 O.3   10340  TIP10190    -0.4105
 49931 H1           8.3400    22.6570   -21.6940 H     10340  TIP10190     0.2052
 49932 H2           9.8260    22.5720   -21.4210 H     10340  TIP10190     0.2052
 49933 OH2          2.0690    13.9530   -31.0610 O.3   10341  TIP10191    -0.4105
 49934 H1           1.7070    14.8380   -31.0960 H     10341  TIP10191     0.2052
 49935 H2           2.1540    13.6930   -31.9790 H     10341  TIP10191     0.2052
 49936 OH2        -16.3940    -8.3950   -50.6290 O.3   10342  TIP10192    -0.4105
 49937 H1         -16.3300    -7.7840   -51.3630 H     10342  TIP10192     0.2052
 49938 H2         -16.1870    -9.2490   -51.0080 H     10342  TIP10192     0.2052
 49939 OH2        -22.1810    -3.9210   -30.2420 O.3   10343  TIP10193    -0.4105
 49940 H1         -21.4730    -4.3650   -29.7760 H     10343  TIP10193     0.2052
 49941 H2         -22.5520    -3.3180   -29.5980 H     10343  TIP10193     0.2052
 49942 OH2         31.2230   -18.2490   -33.9050 O.3   10344  TIP10194    -0.4105
 49943 H1          31.2250   -17.7470   -33.0900 H     10344  TIP10194     0.2052
 49944 H2          30.5500   -17.8310   -34.4420 H     10344  TIP10194     0.2052
 49945 OH2          9.6120    32.7260   -41.7520 O.3   10345  TIP10195    -0.4105
 49946 H1           9.0890    33.3470   -42.2580 H     10345  TIP10195     0.2052
 49947 H2          10.4120    33.2050   -41.5350 H     10345  TIP10195     0.2052
 49948 OH2        -32.0420    32.7590    33.4390 O.3   10346  TIP10196    -0.4105
 49949 H1         -32.9980    32.7320    33.4750 H     10346  TIP10196     0.2052
 49950 H2         -31.8200    33.6730    33.6180 H     10346  TIP10196     0.2052
 49951 OH2         27.5960    -0.9610   -32.0750 O.3   10347  TIP10197    -0.4105
 49952 H1          28.0900    -1.7700   -31.9420 H     10347  TIP10197     0.2052
 49953 H2          28.2230    -0.2630   -31.8870 H     10347  TIP10197     0.2052
 49954 OH2        -20.3440   -32.7270   -54.3410 O.3   10348  TIP10198    -0.4105
 49955 H1         -21.2050   -32.3610   -54.1360 H     10348  TIP10198     0.2052
 49956 H2         -20.5300   -33.6040   -54.6760 H     10348  TIP10198     0.2052
 49957 OH2         -5.1240    -9.8590   -48.9590 O.3   10349  TIP10199    -0.4105
 49958 H1          -5.5220    -9.1270   -48.4880 H     10349  TIP10199     0.2052
 49959 H2          -4.4610    -9.4530   -49.5180 H     10349  TIP10199     0.2052
 49960 OH2        -14.5560   -25.8740    25.9790 O.3   10350  TIP10200    -0.4105
 49961 H1         -13.8280   -25.2550    26.0390 H     10350  TIP10200     0.2052
 49962 H2         -15.2090   -25.4250    25.4430 H     10350  TIP10200     0.2052
 49963 OH2         25.8810    -3.3050    17.5240 O.3   10351  TIP10201    -0.4105
 49964 H1          26.1040    -4.1950    17.2520 H     10351  TIP10201     0.2052
 49965 H2          24.9440    -3.2270    17.3450 H     10351  TIP10201     0.2052
 49966 OH2         16.2540     2.2670    35.8510 O.3   10352  TIP10202    -0.4105
 49967 H1          16.6540     2.7480    35.1270 H     10352  TIP10202     0.2052
 49968 H2          16.5800     2.7030    36.6380 H     10352  TIP10202     0.2052
 49969 OH2        -12.8900   -19.1440    42.7690 O.3   10353  TIP10203    -0.4105
 49970 H1         -12.5700   -18.3190    43.1320 H     10353  TIP10203     0.2052
 49971 H2         -12.1280   -19.5280    42.3360 H     10353  TIP10203     0.2052
 49972 OH2        -23.6510    12.4770    26.6900 O.3   10354  TIP10204    -0.4105
 49973 H1         -24.5350    12.6520    26.3670 H     10354  TIP10204     0.2052
 49974 H2         -23.7270    12.5380    27.6430 H     10354  TIP10204     0.2052
 49975 OH2          2.2050   -24.9100    16.6200 O.3   10355  TIP10205    -0.4105
 49976 H1           3.0260   -24.6580    17.0430 H     10355  TIP10205     0.2052
 49977 H2           1.8050   -24.0800    16.3590 H     10355  TIP10205     0.2052
 49978 OH2         -7.1620    17.3500    48.8000 O.3   10356  TIP10206    -0.4105
 49979 H1          -6.2430    17.2250    49.0370 H     10356  TIP10206     0.2052
 49980 H2          -7.3900    16.5640    48.3030 H     10356  TIP10206     0.2052
 49981 OH2         15.2900   -32.8250    43.0800 O.3   10357  TIP10207    -0.4105
 49982 H1          14.6700   -33.4780    43.4070 H     10357  TIP10207     0.2052
 49983 H2          15.3920   -33.0340    42.1520 H     10357  TIP10207     0.2052
 49984 OH2         20.0510    -1.0590    46.2720 O.3   10358  TIP10208    -0.4105
 49985 H1          20.6310    -1.4370    46.9330 H     10358  TIP10208     0.2052
 49986 H2          19.1790    -1.3710    46.5110 H     10358  TIP10208     0.2052
 49987 OH2         -4.7320    18.1800    40.0110 O.3   10359  TIP10209    -0.4105
 49988 H1          -5.4810    17.6050    39.8490 H     10359  TIP10209     0.2052
 49989 H2          -4.1240    17.9880    39.2980 H     10359  TIP10209     0.2052
 49990 OH2         20.1850     1.8840    39.9330 O.3   10360  TIP10210    -0.4105
 49991 H1          20.4080     0.9950    39.6570 H     10360  TIP10210     0.2052
 49992 H2          19.5050     1.7660    40.5960 H     10360  TIP10210     0.2052
 49993 OH2         30.0930    28.8390    42.8180 O.3   10361  TIP10211    -0.4105
 49994 H1          29.5380    29.1140    43.5470 H     10361  TIP10211     0.2052
 49995 H2          30.8420    28.4130    43.2340 H     10361  TIP10211     0.2052
 49996 OH2          7.2120   -24.8040   -49.2780 O.3   10362  TIP10212    -0.4105
 49997 H1           7.5510   -25.3880   -49.9570 H     10362  TIP10212     0.2052
 49998 H2           6.9840   -24.0000   -49.7450 H     10362  TIP10212     0.2052
 49999 OH2         32.5150    -8.3750   -13.7210 O.3   10363  TIP10213    -0.4105
 50000 H1          32.4320    -9.2360   -13.3110 H     10363  TIP10213     0.2052
 50001 H2          31.6160    -8.0580   -13.7990 H     10363  TIP10213     0.2052
 50002 OH2          0.5370    -8.6830   -30.7070 O.3   10364  TIP10214    -0.4105
 50003 H1           0.0160    -8.6240   -31.5080 H     10364  TIP10214     0.2052
 50004 H2          -0.0750    -9.0050   -30.0460 H     10364  TIP10214     0.2052
 50005 OH2         -7.2820    -4.4330    31.1770 O.3   10365  TIP10215    -0.4105
 50006 H1          -7.4250    -3.4890    31.2540 H     10365  TIP10215     0.2052
 50007 H2          -6.7940    -4.6670    31.9670 H     10365  TIP10215     0.2052
 50008 OH2          6.3890     1.6850   -14.9160 O.3   10366  TIP10216    -0.4105
 50009 H1           6.2760     2.4590   -14.3630 H     10366  TIP10216     0.2052
 50010 H2           5.9010     1.8870   -15.7140 H     10366  TIP10216     0.2052
 50011 OH2         20.7490    12.6060   -21.2500 O.3   10367  TIP10217    -0.4105
 50012 H1          20.5580    12.0720   -20.4790 H     10367  TIP10217     0.2052
 50013 H2          21.6140    12.3120   -21.5370 H     10367  TIP10217     0.2052
 50014 OH2         21.0880   -23.5760    45.1350 O.3   10368  TIP10218    -0.4105
 50015 H1          20.2890   -24.0100    45.4330 H     10368  TIP10218     0.2052
 50016 H2          21.5090   -24.2150    44.5600 H     10368  TIP10218     0.2052
 50017 OH2         26.6750    -4.9970   -40.1940 O.3   10369  TIP10219    -0.4105
 50018 H1          27.0680    -5.5170   -39.4930 H     10369  TIP10219     0.2052
 50019 H2          26.4980    -5.6280   -40.8910 H     10369  TIP10219     0.2052
 50020 OH2         11.0000    30.9080    36.3610 O.3   10370  TIP10220    -0.4105
 50021 H1          10.3750    30.1830    36.3610 H     10370  TIP10220     0.2052
 50022 H2          11.6290    30.6830    37.0470 H     10370  TIP10220     0.2052
 50023 OH2        -22.1730     8.9890    43.6520 O.3   10371  TIP10221    -0.4105
 50024 H1         -22.5810     9.7360    44.0900 H     10371  TIP10221     0.2052
 50025 H2         -21.5960     8.6090    44.3140 H     10371  TIP10221     0.2052
 50026 OH2          1.3770     4.6460    44.4020 O.3   10372  TIP10222    -0.4105
 50027 H1           0.6420     4.1240    44.7230 H     10372  TIP10222     0.2052
 50028 H2           1.6530     4.2040    43.5990 H     10372  TIP10222     0.2052
 50029 OH2         12.5810   -32.9570   -41.3730 O.3   10373  TIP10223    -0.4105
 50030 H1          13.4190   -32.5870   -41.0930 H     10373  TIP10223     0.2052
 50031 H2          11.9700   -32.2210   -41.3350 H     10373  TIP10223     0.2052
 50032 OH2        -14.5450   -31.3520   -31.0850 O.3   10374  TIP10224    -0.4105
 50033 H1         -14.1150   -30.9900   -30.3100 H     10374  TIP10224     0.2052
 50034 H2         -14.1080   -32.1900   -31.2330 H     10374  TIP10224     0.2052
 50035 OH2         -8.3000    31.4720    35.0520 O.3   10375  TIP10225    -0.4105
 50036 H1          -7.7570    31.2730    34.2890 H     10375  TIP10225     0.2052
 50037 H2          -9.1990    31.4250    34.7270 H     10375  TIP10225     0.2052
 50038 OH2        -16.1460   -26.0230   -41.6850 O.3   10376  TIP10226    -0.4105
 50039 H1         -15.4340   -25.3990   -41.8250 H     10376  TIP10226     0.2052
 50040 H2         -16.4530   -26.2390   -42.5660 H     10376  TIP10226     0.2052
 50041 OH2         23.8000   -10.0710    51.0940 O.3   10377  TIP10227    -0.4105
 50042 H1          24.5980   -10.4880    51.4200 H     10377  TIP10227     0.2052
 50043 H2          23.9790    -9.1330    51.1510 H     10377  TIP10227     0.2052
 50044 OH2         -6.6470    -6.5190    35.7920 O.3   10378  TIP10228    -0.4105
 50045 H1          -5.8540    -6.6120    36.3200 H     10378  TIP10228     0.2052
 50046 H2          -7.2410    -7.1880    36.1320 H     10378  TIP10228     0.2052
 50047 OH2         -3.9790    -6.2900   -54.3580 O.3   10379  TIP10229    -0.4105
 50048 H1          -3.7340    -7.0600   -54.8700 H     10379  TIP10229     0.2052
 50049 H2          -4.4790    -5.7460   -54.9660 H     10379  TIP10229     0.2052
 50050 OH2        -31.7900    -3.9180   -13.7370 O.3   10380  TIP10230    -0.4105
 50051 H1         -31.1050    -3.4410   -13.2700 H     10380  TIP10230     0.2052
 50052 H2         -31.6460    -4.8350   -13.5040 H     10380  TIP10230     0.2052
 50053 OH2        -30.1680    12.9720    47.4050 O.3   10381  TIP10231    -0.4105
 50054 H1         -30.5110    12.1100    47.6400 H     10381  TIP10231     0.2052
 50055 H2         -29.3210    12.7900    46.9970 H     10381  TIP10231     0.2052
 50056 OH2         18.0640   -26.4710    36.9760 O.3   10382  TIP10232    -0.4105
 50057 H1          18.9420   -26.7940    36.7730 H     10382  TIP10232     0.2052
 50058 H2          18.0930   -25.5400    36.7550 H     10382  TIP10232     0.2052
 50059 OH2         -9.5850    16.7960    40.9350 O.3   10383  TIP10233    -0.4105
 50060 H1          -9.9070    16.5390    41.7990 H     10383  TIP10233     0.2052
 50061 H2         -10.1600    16.3420    40.3190 H     10383  TIP10233     0.2052
 50062 OH2        -29.3360    24.7440    27.8040 O.3   10384  TIP10234    -0.4105
 50063 H1         -29.9100    24.0080    28.0160 H     10384  TIP10234     0.2052
 50064 H2         -29.8950    25.5170    27.8890 H     10384  TIP10234     0.2052
 50065 OH2         19.0170    27.5660    44.4690 O.3   10385  TIP10235    -0.4105
 50066 H1          19.0060    27.5130    45.4250 H     10385  TIP10235     0.2052
 50067 H2          19.7870    28.0970    44.2670 H     10385  TIP10235     0.2052
 50068 OH2        -31.7620   -30.3870    41.6010 O.3   10386  TIP10236    -0.4105
 50069 H1         -31.6740   -31.1420    41.0190 H     10386  TIP10236     0.2052
 50070 H2         -30.8680   -30.0620    41.7090 H     10386  TIP10236     0.2052
 50071 OH2         -9.0650    25.2420   -32.2580 O.3   10387  TIP10237    -0.4105
 50072 H1          -8.1620    25.4820   -32.4660 H     10387  TIP10237     0.2052
 50073 H2          -9.0760    25.1490   -31.3050 H     10387  TIP10237     0.2052
 50074 OH2         18.6220   -13.8080    37.8080 O.3   10388  TIP10238    -0.4105
 50075 H1          17.8000   -13.4580    37.4650 H     10388  TIP10238     0.2052
 50076 H2          19.2550   -13.6680    37.1040 H     10388  TIP10238     0.2052
 50077 OH2        -13.1070   -12.6390   -41.9790 O.3   10389  TIP10239    -0.4105
 50078 H1         -12.4030   -12.0660   -42.2840 H     10389  TIP10239     0.2052
 50079 H2         -13.3970   -12.2440   -41.1560 H     10389  TIP10239     0.2052
 50080 OH2         10.6730    16.9020   -44.5320 O.3   10390  TIP10240    -0.4105
 50081 H1          11.3590    17.2560   -43.9670 H     10390  TIP10240     0.2052
 50082 H2          10.7810    17.3680   -45.3610 H     10390  TIP10240     0.2052
 50083 OH2         27.0890   -32.9620   -29.5730 O.3   10391  TIP10241    -0.4105
 50084 H1          26.3530   -33.3540   -29.1010 H     10391  TIP10241     0.2052
 50085 H2          27.6520   -32.6070   -28.8860 H     10391  TIP10241     0.2052
 50086 OH2         -3.1190   -32.1680    49.8480 O.3   10392  TIP10242    -0.4105
 50087 H1          -2.8120   -32.7840    49.1840 H     10392  TIP10242     0.2052
 50088 H2          -2.4020   -32.1200    50.4800 H     10392  TIP10242     0.2052
 50089 OH2          1.5000   -29.7660   -31.3180 O.3   10393  TIP10243    -0.4105
 50090 H1           0.5880   -30.0090   -31.4790 H     10393  TIP10243     0.2052
 50091 H2           1.6240   -28.9580   -31.8170 H     10393  TIP10243     0.2052
 50092 OH2          5.7610    32.9980    51.7850 O.3   10394  TIP10244    -0.4105
 50093 H1           5.4680    32.4750    52.5310 H     10394  TIP10244     0.2052
 50094 H2           5.9410    32.3570    51.0980 H     10394  TIP10244     0.2052
 50095 OH2        -24.2190    -0.2430   -27.0130 O.3   10395  TIP10245    -0.4105
 50096 H1         -23.3560    -0.4930   -27.3440 H     10395  TIP10245     0.2052
 50097 H2         -24.0480     0.1130   -26.1420 H     10395  TIP10245     0.2052
 50098 OH2        -32.3650     0.1150    51.4400 O.3   10396  TIP10246    -0.4105
 50099 H1         -31.5000     0.3940    51.7390 H     10396  TIP10246     0.2052
 50100 H2         -32.6290    -0.5600    52.0660 H     10396  TIP10246     0.2052
 50101 OH2        -18.5100     9.9520    43.2000 O.3   10397  TIP10247    -0.4105
 50102 H1         -17.8900     9.2380    43.0500 H     10397  TIP10247     0.2052
 50103 H2         -19.3130     9.6690    42.7620 H     10397  TIP10247     0.2052
 50104 OH2        -12.3880     3.0260   -45.6630 O.3   10398  TIP10248    -0.4105
 50105 H1         -11.6470     3.5020   -45.2870 H     10398  TIP10248     0.2052
 50106 H2         -13.1580     3.4140   -45.2460 H     10398  TIP10248     0.2052
 50107 OH2         32.9550    28.7860   -37.4730 O.3   10399  TIP10249    -0.4105
 50108 H1          32.1440    29.1360   -37.1040 H     10399  TIP10249     0.2052
 50109 H2          33.6450    29.1320   -36.9070 H     10399  TIP10249     0.2052
 50110 OH2        -28.1010    24.6170   -18.4460 O.3   10400  TIP10250    -0.4105
 50111 H1         -27.5540    23.8620   -18.6640 H     10400  TIP10250     0.2052
 50112 H2         -27.4890    25.3510   -18.3960 H     10400  TIP10250     0.2052
 50113 OH2         30.3920   -22.9490   -25.9240 O.3   10401  TIP10251    -0.4105
 50114 H1          31.0060   -22.2340   -26.0920 H     10401  TIP10251     0.2052
 50115 H2          30.3940   -23.0490   -24.9720 H     10401  TIP10251     0.2052
 50116 OH2        -28.5150     3.8880   -41.0100 O.3   10402  TIP10252    -0.4105
 50117 H1         -27.7380     4.4470   -41.0370 H     10402  TIP10252     0.2052
 50118 H2         -28.2980     3.2060   -40.3750 H     10402  TIP10252     0.2052
 50119 OH2        -26.2960    -5.2540   -49.7920 O.3   10403  TIP10253    -0.4105
 50120 H1         -26.9610    -5.8140   -49.3910 H     10403  TIP10253     0.2052
 50121 H2         -26.7960    -4.6110   -50.2950 H     10403  TIP10253     0.2052
 50122 OH2          0.4700    -4.3910    36.0260 O.3   10404  TIP10254    -0.4105
 50123 H1           0.6150    -4.9610    35.2710 H     10404  TIP10254     0.2052
 50124 H2          -0.0050    -4.9380    36.6520 H     10404  TIP10254     0.2052
 50125 OH2        -23.0770   -10.3330   -23.7880 O.3   10405  TIP10255    -0.4105
 50126 H1         -23.0290    -9.8460   -22.9650 H     10405  TIP10255     0.2052
 50127 H2         -23.8780   -10.0190   -24.2060 H     10405  TIP10255     0.2052
 50128 OH2         11.4150   -20.0700    47.2340 O.3   10406  TIP10256    -0.4105
 50129 H1          11.3790   -21.0100    47.0560 H     10406  TIP10256     0.2052
 50130 H2          11.5750   -20.0110    48.1750 H     10406  TIP10256     0.2052
 50131 OH2          3.5060   -20.2980   -16.8360 O.3   10407  TIP10257    -0.4105
 50132 H1           4.4370   -20.4310   -17.0170 H     10407  TIP10257     0.2052
 50133 H2           3.0570   -20.8800   -17.4480 H     10407  TIP10257     0.2052
 50134 OH2        -32.6060    20.9620   -38.9330 O.3   10408  TIP10258    -0.4105
 50135 H1         -32.0430    20.9930   -39.7070 H     10408  TIP10258     0.2052
 50136 H2         -32.0580    21.2980   -38.2240 H     10408  TIP10258     0.2052
 50137 OH2        -27.7780    25.6400   -50.6370 O.3   10409  TIP10259    -0.4105
 50138 H1         -28.5150    26.1900   -50.9020 H     10409  TIP10259     0.2052
 50139 H2         -27.0090    26.0780   -51.0020 H     10409  TIP10259     0.2052
 50140 OH2         22.7010     1.0750    46.6330 O.3   10410  TIP10260    -0.4105
 50141 H1          22.3860     0.7940    45.7740 H     10410  TIP10260     0.2052
 50142 H2          23.3350     0.4050    46.8870 H     10410  TIP10260     0.2052
 50143 OH2         -4.3160   -22.9040   -36.1670 O.3   10411  TIP10261    -0.4105
 50144 H1          -4.5260   -23.1470   -37.0690 H     10411  TIP10261     0.2052
 50145 H2          -5.0870   -23.1650   -35.6640 H     10411  TIP10261     0.2052
 50146 OH2         -4.5850    17.1320    49.5590 O.3   10412  TIP10262    -0.4105
 50147 H1          -4.0370    17.2620    48.7850 H     10412  TIP10262     0.2052
 50148 H2          -4.3930    17.8850    50.1180 H     10412  TIP10262     0.2052
 50149 OH2         27.7780    30.0280   -45.0080 O.3   10413  TIP10263    -0.4105
 50150 H1          28.6800    30.1400   -44.7090 H     10413  TIP10263     0.2052
 50151 H2          27.7150    29.1030   -45.2440 H     10413  TIP10263     0.2052
 50152 OH2        -29.8920     1.5430    28.2310 O.3   10414  TIP10264    -0.4105
 50153 H1         -30.0840     1.3020    27.3250 H     10414  TIP10264     0.2052
 50154 H2         -29.1050     1.0440    28.4510 H     10414  TIP10264     0.2052
 50155 OH2         -3.5890   -12.2300    22.7390 O.3   10415  TIP10265    -0.4105
 50156 H1          -3.7700   -12.9630    23.3270 H     10415  TIP10265     0.2052
 50157 H2          -2.7380   -12.4360    22.3530 H     10415  TIP10265     0.2052
 50158 OH2        -12.0860   -12.2280   -19.0030 O.3   10416  TIP10266    -0.4105
 50159 H1         -11.9650   -12.3750   -18.0650 H     10416  TIP10266     0.2052
 50160 H2         -11.4180   -12.7730   -19.4190 H     10416  TIP10266     0.2052
 50161 OH2         -7.2900    14.8030    28.0790 O.3   10417  TIP10267    -0.4105
 50162 H1          -7.4460    13.8740    28.2520 H     10417  TIP10267     0.2052
 50163 H2          -6.7750    14.8130    27.2730 H     10417  TIP10267     0.2052
 50164 OH2         -5.2090    27.1000   -48.6650 O.3   10418  TIP10268    -0.4105
 50165 H1          -4.7290    26.3730   -48.2660 H     10418  TIP10268     0.2052
 50166 H2          -5.7210    26.6940   -49.3640 H     10418  TIP10268     0.2052
 50167 OH2          5.5150    32.9040    29.9930 O.3   10419  TIP10269    -0.4105
 50168 H1           5.4040    31.9750    29.7920 H     10419  TIP10269     0.2052
 50169 H2           5.1270    33.3600    29.2460 H     10419  TIP10269     0.2052
 50170 OH2         28.0720   -32.5780    36.0850 O.3   10420  TIP10270    -0.4105
 50171 H1          27.4930   -32.3780    36.8200 H     10420  TIP10270     0.2052
 50172 H2          27.6010   -33.2440    35.5830 H     10420  TIP10270     0.2052
 50173 OH2        -22.8310    31.9130    35.9560 O.3   10421  TIP10271    -0.4105
 50174 H1         -21.9080    32.0460    35.7410 H     10421  TIP10271     0.2052
 50175 H2         -23.0700    32.6820    36.4740 H     10421  TIP10271     0.2052
 50176 OH2         17.1250    -8.7720   -45.3210 O.3   10422  TIP10272    -0.4105
 50177 H1          16.5850    -8.0690   -45.6820 H     10422  TIP10272     0.2052
 50178 H2          16.4970    -9.3870   -44.9420 H     10422  TIP10272     0.2052
 50179 OH2         14.7740   -22.4860    20.7810 O.3   10423  TIP10273    -0.4105
 50180 H1          15.6570   -22.7690    21.0180 H     10423  TIP10273     0.2052
 50181 H2          14.8950   -21.9610    19.9900 H     10423  TIP10273     0.2052
 50182 OH2         13.0400    24.9650   -34.9810 O.3   10424  TIP10274    -0.4105
 50183 H1          12.4470    25.4570   -35.5490 H     10424  TIP10274     0.2052
 50184 H2          13.8270    24.8340   -35.5110 H     10424  TIP10274     0.2052
 50185 OH2        -27.6710     1.7600   -42.6180 O.3   10425  TIP10275    -0.4105
 50186 H1         -27.5270     2.0240   -43.5260 H     10425  TIP10275     0.2052
 50187 H2         -27.0100     2.2400   -42.1200 H     10425  TIP10275     0.2052
 50188 OH2          0.2290    -0.6560   -24.9980 O.3   10426  TIP10276    -0.4105
 50189 H1          -0.2530    -0.9700   -24.2330 H     10426  TIP10276     0.2052
 50190 H2          -0.2460    -1.0170   -25.7460 H     10426  TIP10276     0.2052
 50191 OH2         12.0770    29.3040   -36.4230 O.3   10427  TIP10277    -0.4105
 50192 H1          11.9640    28.4100   -36.0990 H     10427  TIP10277     0.2052
 50193 H2          12.7390    29.2280   -37.1100 H     10427  TIP10277     0.2052
 50194 OH2         29.9640    22.6190   -21.3830 O.3   10428  TIP10278    -0.4105
 50195 H1          30.4980    23.4040   -21.5070 H     10428  TIP10278     0.2052
 50196 H2          29.0610    22.9300   -21.4470 H     10428  TIP10278     0.2052
 50197 OH2        -18.9740    30.6390    47.2020 O.3   10429  TIP10279    -0.4105
 50198 H1         -18.7120    30.3560    48.0780 H     10429  TIP10279     0.2052
 50199 H2         -19.9300    30.6870    47.2410 H     10429  TIP10279     0.2052
 50200 OH2         31.4470    -5.5430    40.3340 O.3   10430  TIP10280    -0.4105
 50201 H1          31.2650    -5.2970    39.4280 H     10430  TIP10280     0.2052
 50202 H2          31.7740    -4.7410    40.7400 H     10430  TIP10280     0.2052
 50203 OH2          7.2060    -7.7200   -49.5900 O.3   10431  TIP10281    -0.4105
 50204 H1           6.9870    -7.9410   -48.6850 H     10431  TIP10281     0.2052
 50205 H2           6.5320    -8.1530   -50.1140 H     10431  TIP10281     0.2052
 50206 OH2        -18.3560    20.1960    39.9590 O.3   10432  TIP10282    -0.4105
 50207 H1         -18.0710    20.3670    39.0610 H     10432  TIP10282     0.2052
 50208 H2         -17.9190    20.8680    40.4820 H     10432  TIP10282     0.2052
 50209 OH2        -28.3730   -25.5910    32.1930 O.3   10433  TIP10283    -0.4105
 50210 H1         -27.5490   -26.0480    32.0280 H     10433  TIP10283     0.2052
 50211 H2         -28.9860   -26.2830    32.4420 H     10433  TIP10283     0.2052
 50212 OH2        -18.1030   -15.9870    55.1030 O.3   10434  TIP10284    -0.4105
 50213 H1         -18.5800   -15.6200    55.8470 H     10434  TIP10284     0.2052
 50214 H2         -17.8550   -15.2250    54.5790 H     10434  TIP10284     0.2052
 50215 OH2          9.4910     4.6990   -42.2890 O.3   10435  TIP10285    -0.4105
 50216 H1           9.1080     4.4670   -41.4430 H     10435  TIP10285     0.2052
 50217 H2           9.3490     3.9270   -42.8360 H     10435  TIP10285     0.2052
 50218 OH2         14.5350    24.6150    30.9690 O.3   10436  TIP10286    -0.4105
 50219 H1          14.0190    23.8090    30.9500 H     10436  TIP10286     0.2052
 50220 H2          14.5060    24.9410    30.0690 H     10436  TIP10286     0.2052
 50221 OH2          5.7140   -30.6690   -24.3160 O.3   10437  TIP10287    -0.4105
 50222 H1           6.2870   -31.3450   -24.6790 H     10437  TIP10287     0.2052
 50223 H2           6.1880   -30.3360   -23.5550 H     10437  TIP10287     0.2052
 50224 OH2        -19.0180   -24.2840   -43.5780 O.3   10438  TIP10288    -0.4105
 50225 H1         -18.5100   -25.0710   -43.7760 H     10438  TIP10288     0.2052
 50226 H2         -19.8320   -24.6130   -43.1970 H     10438  TIP10288     0.2052
 50227 OH2        -25.3500   -21.3490   -22.8510 O.3   10439  TIP10289    -0.4105
 50228 H1         -25.4810   -21.3490   -23.8000 H     10439  TIP10289     0.2052
 50229 H2         -24.6900   -20.6720   -22.7010 H     10439  TIP10289     0.2052
 50230 OH2          9.2470    19.0130    46.9130 O.3   10440  TIP10290    -0.4105
 50231 H1           9.3830    19.0160    45.9650 H     10440  TIP10290     0.2052
 50232 H2           9.0060    18.1100    47.1180 H     10440  TIP10290     0.2052
 50233 OH2         12.3500    24.9720   -29.4510 O.3   10441  TIP10291    -0.4105
 50234 H1          12.2740    25.8920   -29.1970 H     10441  TIP10291     0.2052
 50235 H2          11.4460    24.6780   -29.5620 H     10441  TIP10291     0.2052
 50236 OH2          0.7950   -15.5780   -26.8190 O.3   10442  TIP10292    -0.4105
 50237 H1           0.4750   -15.1790   -27.6280 H     10442  TIP10292     0.2052
 50238 H2           1.7240   -15.7410   -26.9840 H     10442  TIP10292     0.2052
 50239 OH2         -6.3910    -0.6250   -12.0230 O.3   10443  TIP10293    -0.4105
 50240 H1          -6.0140    -1.3050   -11.4640 H     10443  TIP10293     0.2052
 50241 H2          -7.2970    -0.9020   -12.1610 H     10443  TIP10293     0.2052
 50242 OH2        -20.7830    14.7110   -25.4960 O.3   10444  TIP10294    -0.4105
 50243 H1         -20.3000    15.0670   -24.7510 H     10444  TIP10294     0.2052
 50244 H2         -21.4180    14.1100   -25.1060 H     10444  TIP10294     0.2052
 50245 OH2         17.1840     9.3900    54.8750 O.3   10445  TIP10295    -0.4105
 50246 H1          18.1090     9.6310    54.9090 H     10445  TIP10295     0.2052
 50247 H2          16.7160    10.2220    54.9510 H     10445  TIP10295     0.2052
 50248 OH2          7.2960    11.6500   -43.8980 O.3   10446  TIP10296    -0.4105
 50249 H1           6.4440    12.0120   -43.6530 H     10446  TIP10296     0.2052
 50250 H2           7.7940    11.6340   -43.0810 H     10446  TIP10296     0.2052
 50251 OH2          7.5920   -21.6390    31.8260 O.3   10447  TIP10297    -0.4105
 50252 H1           8.0980   -20.9960    31.3300 H     10447  TIP10297     0.2052
 50253 H2           8.0590   -21.7220    32.6580 H     10447  TIP10297     0.2052
 50254 OH2        -16.5270     5.1660   -47.7160 O.3   10448  TIP10298    -0.4105
 50255 H1         -16.2550     6.0230   -47.3880 H     10448  TIP10298     0.2052
 50256 H2         -15.7150     4.6600   -47.7670 H     10448  TIP10298     0.2052
 50257 OH2        -25.1310   -18.8510    53.6260 O.3   10449  TIP10299    -0.4105
 50258 H1         -25.6870   -18.7650    54.4010 H     10449  TIP10299     0.2052
 50259 H2         -24.9540   -19.7890    53.5610 H     10449  TIP10299     0.2052
 50260 OH2          7.9420    32.4720    35.6790 O.3   10450  TIP10300    -0.4105
 50261 H1           8.8410    32.2020    35.8640 H     10450  TIP10300     0.2052
 50262 H2           7.9810    33.4280    35.6410 H     10450  TIP10300     0.2052
 50263 OH2         -0.0640   -13.5760    49.2270 O.3   10451  TIP10301    -0.4105
 50264 H1          -0.3430   -13.2260    48.3810 H     10451  TIP10301     0.2052
 50265 H2          -0.3650   -14.4840    49.2220 H     10451  TIP10301     0.2052
 50266 OH2         31.5820    26.0870    26.9740 O.3   10452  TIP10302    -0.4105
 50267 H1          31.4370    26.7460    27.6530 H     10452  TIP10302     0.2052
 50268 H2          31.4550    26.5580    26.1510 H     10452  TIP10302     0.2052
 50269 OH2         -0.8460    25.3190   -39.0460 O.3   10453  TIP10303    -0.4105
 50270 H1          -1.2110    26.1770   -39.2620 H     10453  TIP10303     0.2052
 50271 H2          -1.1110    24.7550   -39.7730 H     10453  TIP10303     0.2052
 50272 OH2         32.8460    -9.9680    40.7310 O.3   10454  TIP10304    -0.4105
 50273 H1          32.7420    -9.8140    41.6700 H     10454  TIP10304     0.2052
 50274 H2          33.6880   -10.4170    40.6540 H     10454  TIP10304     0.2052
 50275 OH2         -7.6990   -28.6120   -47.1890 O.3   10455  TIP10305    -0.4105
 50276 H1          -7.2270   -28.4170   -47.9970 H     10455  TIP10305     0.2052
 50277 H2          -8.5310   -28.1460   -47.2780 H     10455  TIP10305     0.2052
 50278 OH2          3.1720     6.6660   -28.3610 O.3   10456  TIP10306    -0.4105
 50279 H1           2.4570     6.1210   -28.6890 H     10456  TIP10306     0.2052
 50280 H2           2.9770     7.5430   -28.6910 H     10456  TIP10306     0.2052
 50281 OH2         10.4750   -12.5660    40.0760 O.3   10457  TIP10307    -0.4105
 50282 H1          10.9720   -11.7880    40.3300 H     10457  TIP10307     0.2052
 50283 H2          11.0930   -13.0900    39.5670 H     10457  TIP10307     0.2052
 50284 OH2        -20.6490    22.4200   -26.7170 O.3   10458  TIP10308    -0.4105
 50285 H1         -19.8670    21.9310   -26.4620 H     10458  TIP10308     0.2052
 50286 H2         -21.1000    22.5990   -25.8910 H     10458  TIP10308     0.2052
 50287 OH2         10.6920    -5.8560    23.2900 O.3   10459  TIP10309    -0.4105
 50288 H1          11.0800    -5.2670    23.9370 H     10459  TIP10309     0.2052
 50289 H2           9.8460    -6.1000    23.6640 H     10459  TIP10309     0.2052
 50290 OH2        -26.7440     8.7910    42.9580 O.3   10460  TIP10310    -0.4105
 50291 H1         -25.8090     8.7140    42.7690 H     10460  TIP10310     0.2052
 50292 H2         -26.7910     9.4150    43.6830 H     10460  TIP10310     0.2052
 50293 OH2         19.9180     4.7750   -54.9230 O.3   10461  TIP10311    -0.4105
 50294 H1          19.2530     4.8920   -54.2450 H     10461  TIP10311     0.2052
 50295 H2          20.0160     5.6420   -55.3150 H     10461  TIP10311     0.2052
 50296 OH2        -24.0810   -32.6080    33.9370 O.3   10462  TIP10312    -0.4105
 50297 H1         -23.9590   -33.5400    33.7550 H     10462  TIP10312     0.2052
 50298 H2         -24.8480   -32.5740    34.5080 H     10462  TIP10312     0.2052
 50299 OH2        -10.7280    10.6130   -33.5310 O.3   10463  TIP10313    -0.4105
 50300 H1         -10.0690    10.4060   -34.1940 H     10463  TIP10313     0.2052
 50301 H2         -10.7810    11.5690   -33.5360 H     10463  TIP10313     0.2052
 50302 OH2        -23.3120     2.8490   -44.6860 O.3   10464  TIP10314    -0.4105
 50303 H1         -22.8200     2.2980   -45.2950 H     10464  TIP10314     0.2052
 50304 H2         -23.5410     3.6250   -45.1960 H     10464  TIP10314     0.2052
 50305 OH2        -24.3280    -7.2320   -36.6250 O.3   10465  TIP10315    -0.4105
 50306 H1         -24.5800    -6.4010   -36.2210 H     10465  TIP10315     0.2052
 50307 H2         -23.4820    -7.0530   -37.0350 H     10465  TIP10315     0.2052
 50308 OH2         -9.9200   -26.1480    47.6830 O.3   10466  TIP10316    -0.4105
 50309 H1         -10.0280   -26.2340    46.7360 H     10466  TIP10316     0.2052
 50310 H2          -9.8830   -25.2040    47.8360 H     10466  TIP10316     0.2052
 50311 OH2        -22.8630     8.8290   -42.2220 O.3   10467  TIP10317    -0.4105
 50312 H1         -23.5520     8.7340   -41.5650 H     10467  TIP10317     0.2052
 50313 H2         -22.6620     9.7650   -42.2250 H     10467  TIP10317     0.2052
 50314 OH2         27.1270    22.4580    36.6210 O.3   10468  TIP10318    -0.4105
 50315 H1          26.7010    22.0540    35.8650 H     10468  TIP10318     0.2052
 50316 H2          27.9900    22.7170    36.3000 H     10468  TIP10318     0.2052
 50317 OH2        -19.1600   -11.8620   -33.1500 O.3   10469  TIP10319    -0.4105
 50318 H1         -18.6270   -12.2700   -32.4680 H     10469  TIP10319     0.2052
 50319 H2         -19.9990   -12.3230   -33.1060 H     10469  TIP10319     0.2052
 50320 OH2         -7.9230   -31.6120    27.2220 O.3   10470  TIP10320    -0.4105
 50321 H1          -8.3530   -30.9200    26.7190 H     10470  TIP10320     0.2052
 50322 H2          -7.3430   -32.0410    26.5930 H     10470  TIP10320     0.2052
 50323 OH2         26.0410   -12.0590    23.4540 O.3   10471  TIP10321    -0.4105
 50324 H1          26.2460   -11.2600    22.9690 H     10471  TIP10321     0.2052
 50325 H2          25.1040   -11.9940    23.6390 H     10471  TIP10321     0.2052
 50326 OH2         23.1630    23.5250    21.6250 O.3   10472  TIP10322    -0.4105
 50327 H1          22.8460    24.3510    21.2590 H     10472  TIP10322     0.2052
 50328 H2          23.9980    23.3720    21.1840 H     10472  TIP10322     0.2052
 50329 OH2          1.4460    20.3950   -46.6240 O.3   10473  TIP10323    -0.4105
 50330 H1           0.7060    20.2510   -46.0350 H     10473  TIP10323     0.2052
 50331 H2           1.1770    21.1330   -47.1710 H     10473  TIP10323     0.2052
 50332 OH2        -19.4020    -1.7490   -41.4810 O.3   10474  TIP10324    -0.4105
 50333 H1         -19.2040    -2.4210   -40.8290 H     10474  TIP10324     0.2052
 50334 H2         -18.8120    -1.9390   -42.2100 H     10474  TIP10324     0.2052
 50335 OH2         23.7750   -30.6210    37.2680 O.3   10475  TIP10325    -0.4105
 50336 H1          24.2860   -30.2080    37.9630 H     10475  TIP10325     0.2052
 50337 H2          23.1990   -29.9260    36.9480 H     10475  TIP10325     0.2052
 50338 OH2         25.7810     4.9690   -28.2960 O.3   10476  TIP10326    -0.4105
 50339 H1          25.8230     5.8060   -28.7580 H     10476  TIP10326     0.2052
 50340 H2          26.2220     5.1320   -27.4620 H     10476  TIP10326     0.2052
 50341 OH2        -20.0030   -15.8790    39.9370 O.3   10477  TIP10327    -0.4105
 50342 H1         -20.7600   -16.4610    39.8800 H     10477  TIP10327     0.2052
 50343 H2         -19.3870   -16.3410    40.5060 H     10477  TIP10327     0.2052
 50344 OH2        -21.3570   -22.3880    34.1520 O.3   10478  TIP10328    -0.4105
 50345 H1         -20.8910   -21.5610    34.0300 H     10478  TIP10328     0.2052
 50346 H2         -21.8150   -22.2850    34.9860 H     10478  TIP10328     0.2052
 50347 OH2         -9.8140     8.5060    41.4430 O.3   10479  TIP10329    -0.4105
 50348 H1         -10.4110     8.6870    40.7180 H     10479  TIP10329     0.2052
 50349 H2          -9.6990     7.5560    41.4290 H     10479  TIP10329     0.2052
 50350 OH2        -30.3110    28.7780   -23.4670 O.3   10480  TIP10330    -0.4105
 50351 H1         -30.3900    29.7050   -23.6950 H     10480  TIP10330     0.2052
 50352 H2         -29.6240    28.4470   -24.0450 H     10480  TIP10330     0.2052
 50353 OH2         15.1050     8.5770    53.0480 O.3   10481  TIP10331    -0.4105
 50354 H1          15.8110     8.9630    53.5660 H     10481  TIP10331     0.2052
 50355 H2          15.5200     8.3310    52.2210 H     10481  TIP10331     0.2052
 50356 OH2         31.3380    16.1890    42.4720 O.3   10482  TIP10332    -0.4105
 50357 H1          31.5530    16.7260    43.2350 H     10482  TIP10332     0.2052
 50358 H2          30.4690    15.8360    42.6650 H     10482  TIP10332     0.2052
 50359 OH2         10.9950    25.8430   -40.4100 O.3   10483  TIP10333    -0.4105
 50360 H1          10.6240    26.7110   -40.2550 H     10483  TIP10333     0.2052
 50361 H2          10.6580    25.3060   -39.6920 H     10483  TIP10333     0.2052
 50362 OH2         28.2840   -10.6400    41.1440 O.3   10484  TIP10334    -0.4105
 50363 H1          28.3200    -9.6880    41.2310 H     10484  TIP10334     0.2052
 50364 H2          27.5620   -10.7990    40.5360 H     10484  TIP10334     0.2052
 50365 OH2          3.5030    10.6290   -51.2170 O.3   10485  TIP10335    -0.4105
 50366 H1           4.3910    10.3630   -51.4560 H     10485  TIP10335     0.2052
 50367 H2           3.5940    11.0160   -50.3470 H     10485  TIP10335     0.2052
 50368 OH2        -18.5870   -22.1460   -36.8210 O.3   10486  TIP10336    -0.4105
 50369 H1         -18.0720   -21.9110   -37.5930 H     10486  TIP10336     0.2052
 50370 H2         -18.7630   -23.0810   -36.9250 H     10486  TIP10336     0.2052
 50371 OH2        -10.9450    32.1990    42.1920 O.3   10487  TIP10337    -0.4105
 50372 H1         -11.2690    32.9320    42.7150 H     10487  TIP10337     0.2052
 50373 H2         -11.4890    32.2070    41.4040 H     10487  TIP10337     0.2052
 50374 OH2        -31.6920    21.5790    49.5460 O.3   10488  TIP10338    -0.4105
 50375 H1         -31.0050    20.9740    49.2650 H     10488  TIP10338     0.2052
 50376 H2         -32.4460    21.0180    49.7290 H     10488  TIP10338     0.2052
 50377 OH2        -18.3580    28.6600    34.3200 O.3   10489  TIP10339    -0.4105
 50378 H1         -17.8030    27.9560    33.9870 H     10489  TIP10339     0.2052
 50379 H2         -18.1730    29.4040    33.7460 H     10489  TIP10339     0.2052
 50380 OH2         -6.0510    23.8810   -53.9370 O.3   10490  TIP10340    -0.4105
 50381 H1          -6.3410    23.6410   -53.0570 H     10490  TIP10340     0.2052
 50382 H2          -6.2010    23.0950   -54.4620 H     10490  TIP10340     0.2052
 50383 OH2        -15.3610    -1.0550   -38.9050 O.3   10491  TIP10341    -0.4105
 50384 H1         -15.2370    -1.0930   -37.9570 H     10491  TIP10341     0.2052
 50385 H2         -15.7400    -0.1910   -39.0640 H     10491  TIP10341     0.2052
 50386 OH2         19.2340   -30.0100   -28.5520 O.3   10492  TIP10342    -0.4105
 50387 H1          19.0160   -29.6720   -29.4200 H     10492  TIP10342     0.2052
 50388 H2          18.6870   -30.7890   -28.4530 H     10492  TIP10342     0.2052
 50389 POT         31.9860     3.4880   -17.8680 K     10493  POT1        1.0000
 50390 POT         11.2100    31.4530    25.2150 K     10494  POT2        1.0000
 50391 POT         -0.7420    22.4880    50.8620 K     10495  POT3        1.0000
 50392 POT         11.8510    -8.1830   -10.5950 K     10496  POT4        1.0000
 50393 POT        -11.5000   -26.8570    36.5270 K     10497  POT5        1.0000
 50394 POT         19.7690   -15.2490   -21.9050 K     10498  POT6        1.0000
 50395 POT        -14.0610    -2.6240   -40.6810 K     10499  POT7        1.0000
 50396 POT         31.7850   -30.7650    42.0990 K     10500  POT8        1.0000
 50397 POT        -21.3550   -27.5650   -47.4550 K     10501  POT9        1.0000
 50398 POT        -27.6900    24.8720    17.9630 K     10502  POT10       1.0000
 50399 POT         20.2120   -22.1760    42.8240 K     10503  POT11       1.0000
 50400 POT          6.4310     1.2340   -36.6410 K     10504  POT12       1.0000
 50401 POT        -12.9190    19.6740    19.4120 K     10505  POT13       1.0000
 50402 POT         31.0060     3.4490    31.6900 K     10506  POT14       1.0000
 50403 POT         15.4640    30.7210   -25.0060 K     10507  POT15       1.0000
 50404 POT         -9.4050   -13.7710    32.7710 K     10508  POT16       1.0000
 50405 POT         29.1420    -0.0890    31.8410 K     10509  POT17       1.0000
 50406 POT        -25.0580   -19.6170   -34.4450 K     10510  POT18       1.0000
 50407 POT        -20.8800    23.9490    31.5980 K     10511  POT19       1.0000
 50408 POT        -23.7790    -9.1350   -34.5980 K     10512  POT20       1.0000
 50409 POT        -22.0910   -31.3500    32.5460 K     10513  POT21       1.0000
 50410 POT         -0.2670   -12.4850   -48.0200 K     10514  POT22       1.0000
 50411 POT         23.5570   -29.0670   -30.9800 K     10515  POT23       1.0000
 50412 POT         -6.6810    12.0430    42.8460 K     10516  POT24       1.0000
 50413 POT        -25.9520    29.5720    38.9160 K     10517  POT25       1.0000
 50414 POT          1.4960   -22.1920    47.5630 K     10518  POT26       1.0000
 50415 POT        -10.2580    20.9210    42.4680 K     10519  POT27       1.0000
 50416 CLA         26.6490    -0.6200    33.5550 Cl    10520  CLA28      -1.0000
 50417 CLA         11.5920    19.7030    35.8350 Cl    10521  CLA29      -1.0000
 50418 CLA        -24.8270   -18.7880    39.8330 Cl    10522  CLA30      -1.0000
 50419 CLA        -16.6950   -23.7600    25.0700 Cl    10523  CLA31      -1.0000
 50420 CLA         31.4820    -7.1660    34.7510 Cl    10524  CLA32      -1.0000
 50421 CLA         23.8880    22.3380    48.6180 Cl    10525  CLA33      -1.0000
 50422 CLA         31.6040    25.4110    40.2690 Cl    10526  CLA34      -1.0000
 50423 CLA        -27.9920   -15.1850   -35.4220 Cl    10527  CLA35      -1.0000
 50424 CLA         15.6950   -24.8630    43.9370 Cl    10528  CLA36      -1.0000
 50425 CLA        -26.1830    30.2200   -47.8410 Cl    10529  CLA37      -1.0000
 50426 CLA         30.7800   -29.3420   -33.2830 Cl    10530  CLA38      -1.0000
 50427 CLA         20.1170    12.0180    39.5380 Cl    10531  CLA39      -1.0000
 50428 CLA        -19.1110    -0.7920    34.9080 Cl    10532  CLA40      -1.0000
 50429 CLA        -16.9970    21.5440    37.3630 Cl    10533  CLA41      -1.0000
 50430 CLA         16.3800     6.7490    50.6700 Cl    10534  CLA42      -1.0000
 50431 CLA         -3.6710    -3.7950   -46.7770 Cl    10535  CLA43      -1.0000
 50432 CLA        -18.2900     3.7880    31.7570 Cl    10536  CLA44      -1.0000
 50433 CLA         30.2220     3.3510   -33.6870 Cl    10537  CLA45      -1.0000
 50434 CLA        -19.7000   -21.1620   -55.4920 Cl    10538  CLA46      -1.0000
 50435 CLA         -2.3970    26.2050   -52.5340 Cl    10539  CLA47      -1.0000
 50436 CLA         -6.0350    31.6090   -44.0830 Cl    10540  CLA48      -1.0000
 50437 CLA        -10.4240     2.1390   -30.7920 Cl    10541  CLA49      -1.0000
 50438 CLA        -22.9170   -13.6450   -53.8830 Cl    10542  CLA50      -1.0000
 50439 CLA         -4.7470   -24.1930    32.2410 Cl    10543  CLA51      -1.0000
 50440 CLA          9.2670   -22.0920   -42.9110 Cl    10544  CLA52      -1.0000
 50441 CLA        -13.4920    19.5130    29.9990 Cl    10545  CLA53      -1.0000
 50442 CLA         -2.1490    -9.1220    41.0620 Cl    10546  CLA54      -1.0000
@<TRIPOS>BOND
     1     1     2    1
     2     1     3    1
     3     1    65   am
     4     3     4    1
     5     3     5    1
     6     3     9    1
     7     5     6    1
     8     5     7    1
     9     5     8    1
    10     9    10    2
    11     9    11   am
    12    11    12    1
    13    11    13    1
    14    13    14    1
    15    13    15    1
    16    13    19    1
    17    15    16    1
    18    15    17    1
    19    15    18    1
    20    19    20    2
    21    19    21   am
    22    21    22    1
    23    21    23    1
    24    23    24    1
    25    23    25    1
    26    23    29    1
    27    25    26    1
    28    25    27    1
    29    25    28    1
    30    29    30    2
    31    29    31   am
    32    31    32    1
    33    31    33    1
    34    33    34    1
    35    33    35    1
    36    33    39    1
    37    35    36    1
    38    35    37    1
    39    35    38    1
    40    39    40    2
    41    39    41   am
    42    41    42    1
    43    41    44    1
    44    42    43    1
    45    42    48    1
    46    42    52    1
    47    44    45    1
    48    44    46    1
    49    44    47    1
    50    48    49    1
    51    48    50    1
    52    48    51    1
    53    52    53    2
    54    52    54   am
    55    54    55    1
    56    54    57    1
    57    55    56    1
    58    55    61    1
    59    55    65    1
    60    57    58    1
    61    57    59    1
    62    57    60    1
    63    61    62    1
    64    61    63    1
    65    61    64    1
    66    65    66    2
    67    67    68    1
    68    67    71    1
    69    67    75    1
    70    67    79    1
    71    68    69    1
    72    68    70    1
    73    68    83    1
    74    71    72    1
    75    71    73    1
    76    71    74    1
    77    75    76    1
    78    75    77    1
    79    75    78    1
    80    79    80    1
    81    79    81    1
    82    79    82    1
    83    83    84    1
    84    83    85    1
    85    83    89    1
    86    86    87    2
    87    86    88    1
    88    86    89    1
    89    86    90    1
    90    90    91    1
    91    91    92    1
    92    91    93    1
    93    91    94    1
    94    94    95    1
    95    94    96    1
    96    94   102    1
    97    96    97    1
    98    97    98    2
    99    97    99    1
   100    99   100    1
   101    99   101    1
   102    99   111    1
   103   102   103    1
   104   102   104    1
   105   102   105    1
   106   105   106    1
   107   106   107    2
   108   106   108    1
   109   108   109    1
   110   108   110    1
   111   108   158    1
   112   111   112    1
   113   111   113    1
   114   111   114    1
   115   114   115    1
   116   114   116    1
   117   114   117    1
   118   117   118    1
   119   117   119    1
   120   117   120    1
   121   120   121    1
   122   120   122    1
   123   120   123    1
   124   123   124    1
   125   123   125    1
   126   123   126    1
   127   126   127    1
   128   126   128    1
   129   126   129    1
   130   129   130    1
   131   129   131    2
   132   131   132    1
   133   131   133    1
   134   133   134    1
   135   133   135    1
   136   133   136    1
   137   136   137    1
   138   136   138    1
   139   136   139    1
   140   139   140    1
   141   139   141    1
   142   139   142    1
   143   142   143    1
   144   142   144    1
   145   142   145    1
   146   145   146    1
   147   145   147    1
   148   145   148    1
   149   148   149    1
   150   148   150    1
   151   148   151    1
   152   151   152    1
   153   151   153    1
   154   151   154    1
   155   154   155    1
   156   154   156    1
   157   154   157    1
   158   158   159    1
   159   158   160    1
   160   158   161    1
   161   161   162    1
   162   161   163    1
   163   161   164    1
   164   164   165    1
   165   164   166    1
   166   164   167    1
   167   167   168    1
   168   167   169    1
   169   167   170    1
   170   170   171    1
   171   170   172    1
   172   170   173    1
   173   173   174    1
   174   173   175    1
   175   173   176    1
   176   176   177    1
   177   176   178    1
   178   176   179    1
   179   179   180    1
   180   179   181    1
   181   179   182    1
   182   182   183    1
   183   182   184    1
   184   182   185    1
   185   185   186    1
   186   185   187    1
   187   185   188    1
   188   188   189    1
   189   188   190    1
   190   188   191    1
   191   191   192    1
   192   191   193    1
   193   191   194    1
   194   194   195    1
   195   194   196    1
   196   194   197    1
   197   197   198    1
   198   197   199    1
   199   197   200    1
   200   201   202    1
   201   201   205    1
   202   201   209    1
   203   201   213    1
   204   202   203    1
   205   202   204    1
   206   202   217    1
   207   205   206    1
   208   205   207    1
   209   205   208    1
   210   209   210    1
   211   209   211    1
   212   209   212    1
   213   213   214    1
   214   213   215    1
   215   213   216    1
   216   217   218    1
   217   217   219    1
   218   217   223    1
   219   220   221    2
   220   220   222    1
   221   220   223    1
   222   220   224    1
   223   224   225    1
   224   225   226    1
   225   225   227    1
   226   225   228    1
   227   228   229    1
   228   228   230    1
   229   228   236    1
   230   230   231    1
   231   231   232    2
   232   231   233    1
   233   233   234    1
   234   233   235    1
   235   233   245    1
   236   236   237    1
   237   236   238    1
   238   236   239    1
   239   239   240    1
   240   240   241    2
   241   240   242    1
   242   242   243    1
   243   242   244    1
   244   242   292    1
   245   245   246    1
   246   245   247    1
   247   245   248    1
   248   248   249    1
   249   248   250    1
   250   248   251    1
   251   251   252    1
   252   251   253    1
   253   251   254    1
   254   254   255    1
   255   254   256    1
   256   254   257    1
   257   257   258    1
   258   257   259    1
   259   257   260    1
   260   260   261    1
   261   260   262    1
   262   260   263    1
   263   263   264    1
   264   263   265    2
   265   265   266    1
   266   265   267    1
   267   267   268    1
   268   267   269    1
   269   267   270    1
   270   270   271    1
   271   270   272    1
   272   270   273    1
   273   273   274    1
   274   273   275    1
   275   273   276    1
   276   276   277    1
   277   276   278    1
   278   276   279    1
   279   279   280    1
   280   279   281    1
   281   279   282    1
   282   282   283    1
   283   282   284    1
   284   282   285    1
   285   285   286    1
   286   285   287    1
   287   285   288    1
   288   288   289    1
   289   288   290    1
   290   288   291    1
   291   292   293    1
   292   292   294    1
   293   292   295    1
   294   295   296    1
   295   295   297    1
   296   295   298    1
   297   298   299    1
   298   298   300    1
   299   298   301    1
   300   301   302    1
   301   301   303    1
   302   301   304    1
   303   304   305    1
   304   304   306    1
   305   304   307    1
   306   307   308    1
   307   307   309    1
   308   307   310    1
   309   310   311    1
   310   310   312    1
   311   310   313    1
   312   313   314    1
   313   313   315    1
   314   313   316    1
   315   316   317    1
   316   316   318    1
   317   316   319    1
   318   319   320    1
   319   319   321    1
   320   319   322    1
   321   322   323    1
   322   322   324    1
   323   322   325    1
   324   325   326    1
   325   325   327    1
   326   325   328    1
   327   328   329    1
   328   328   330    1
   329   328   331    1
   330   331   332    1
   331   331   333    1
   332   331   334    1
   333   335   336    1
   334   335   339    1
   335   335   343    1
   336   335   347    1
   337   336   337    1
   338   336   338    1
   339   336   351    1
   340   339   340    1
   341   339   341    1
   342   339   342    1
   343   343   344    1
   344   343   345    1
   345   343   346    1
   346   347   348    1
   347   347   349    1
   348   347   350    1
   349   351   352    1
   350   351   353    1
   351   351   357    1
   352   354   355    2
   353   354   356    1
   354   354   357    1
   355   354   358    1
   356   358   359    1
   357   359   360    1
   358   359   361    1
   359   359   362    1
   360   362   363    1
   361   362   364    1
   362   362   370    1
   363   364   365    1
   364   365   366    2
   365   365   367    1
   366   367   368    1
   367   367   369    1
   368   367   379    1
   369   370   371    1
   370   370   372    1
   371   370   373    1
   372   373   374    1
   373   374   375    2
   374   374   376    1
   375   376   377    1
   376   376   378    1
   377   376   426    1
   378   379   380    1
   379   379   381    1
   380   379   382    1
   381   382   383    1
   382   382   384    1
   383   382   385    1
   384   385   386    1
   385   385   387    1
   386   385   388    1
   387   388   389    1
   388   388   390    1
   389   388   391    1
   390   391   392    1
   391   391   393    1
   392   391   394    1
   393   394   395    1
   394   394   396    1
   395   394   397    1
   396   397   398    1
   397   397   399    2
   398   399   400    1
   399   399   401    1
   400   401   402    1
   401   401   403    1
   402   401   404    1
   403   404   405    1
   404   404   406    1
   405   404   407    1
   406   407   408    1
   407   407   409    1
   408   407   410    1
   409   410   411    1
   410   410   412    1
   411   410   413    1
   412   413   414    1
   413   413   415    1
   414   413   416    1
   415   416   417    1
   416   416   418    1
   417   416   419    1
   418   419   420    1
   419   419   421    1
   420   419   422    1
   421   422   423    1
   422   422   424    1
   423   422   425    1
   424   426   427    1
   425   426   428    1
   426   426   429    1
   427   429   430    1
   428   429   431    1
   429   429   432    1
   430   432   433    1
   431   432   434    1
   432   432   435    1
   433   435   436    1
   434   435   437    1
   435   435   438    1
   436   438   439    1
   437   438   440    1
   438   438   441    1
   439   441   442    1
   440   441   443    1
   441   441   444    1
   442   444   445    1
   443   444   446    1
   444   444   447    1
   445   447   448    1
   446   447   449    1
   447   447   450    1
   448   450   451    1
   449   450   452    1
   450   450   453    1
   451   453   454    1
   452   453   455    1
   453   453   456    1
   454   456   457    1
   455   456   458    1
   456   456   459    1
   457   459   460    1
   458   459   461    1
   459   459   462    1
   460   462   463    1
   461   462   464    1
   462   462   465    1
   463   465   466    1
   464   465   467    1
   465   465   468    1
   466   469   470    1
   467   469   473    1
   468   469   477    1
   469   469   481    1
   470   470   471    1
   471   470   472    1
   472   470   485    1
   473   473   474    1
   474   473   475    1
   475   473   476    1
   476   477   478    1
   477   477   479    1
   478   477   480    1
   479   481   482    1
   480   481   483    1
   481   481   484    1
   482   485   486    1
   483   485   487    1
   484   485   491    1
   485   488   489    2
   486   488   490    1
   487   488   491    1
   488   488   492    1
   489   492   493    1
   490   493   494    1
   491   493   495    1
   492   493   496    1
   493   496   497    1
   494   496   498    1
   495   496   504    1
   496   498   499    1
   497   499   500    2
   498   499   501    1
   499   501   502    1
   500   501   503    1
   501   501   513    1
   502   504   505    1
   503   504   506    1
   504   504   507    1
   505   507   508    1
   506   508   509    2
   507   508   510    1
   508   510   511    1
   509   510   512    1
   510   510   560    1
   511   513   514    1
   512   513   515    1
   513   513   516    1
   514   516   517    1
   515   516   518    1
   516   516   519    1
   517   519   520    1
   518   519   521    1
   519   519   522    1
   520   522   523    1
   521   522   524    1
   522   522   525    1
   523   525   526    1
   524   525   527    1
   525   525   528    1
   526   528   529    1
   527   528   530    1
   528   528   531    1
   529   531   532    1
   530   531   533    2
   531   533   534    1
   532   533   535    1
   533   535   536    1
   534   535   537    1
   535   535   538    1
   536   538   539    1
   537   538   540    1
   538   538   541    1
   539   541   542    1
   540   541   543    1
   541   541   544    1
   542   544   545    1
   543   544   546    1
   544   544   547    1
   545   547   548    1
   546   547   549    1
   547   547   550    1
   548   550   551    1
   549   550   552    1
   550   550   553    1
   551   553   554    1
   552   553   555    1
   553   553   556    1
   554   556   557    1
   555   556   558    1
   556   556   559    1
   557   560   561    1
   558   560   562    1
   559   560   563    1
   560   563   564    1
   561   563   565    1
   562   563   566    1
   563   566   567    1
   564   566   568    1
   565   566   569    1
   566   569   570    1
   567   569   571    1
   568   569   572    1
   569   572   573    1
   570   572   574    1
   571   572   575    1
   572   575   576    1
   573   575   577    1
   574   575   578    1
   575   578   579    1
   576   578   580    1
   577   578   581    1
   578   581   582    1
   579   581   583    1
   580   581   584    1
   581   584   585    1
   582   584   586    1
   583   584   587    1
   584   587   588    1
   585   587   589    1
   586   587   590    1
   587   590   591    1
   588   590   592    1
   589   590   593    1
   590   593   594    1
   591   593   595    1
   592   593   596    1
   593   596   597    1
   594   596   598    1
   595   596   599    1
   596   599   600    1
   597   599   601    1
   598   599   602    1
   599   603   604    1
   600   603   607    1
   601   603   611    1
   602   603   615    1
   603   604   605    1
   604   604   606    1
   605   604   619    1
   606   607   608    1
   607   607   609    1
   608   607   610    1
   609   611   612    1
   610   611   613    1
   611   611   614    1
   612   615   616    1
   613   615   617    1
   614   615   618    1
   615   619   620    1
   616   619   621    1
   617   619   625    1
   618   622   623    2
   619   622   624    1
   620   622   625    1
   621   622   626    1
   622   626   627    1
   623   627   628    1
   624   627   629    1
   625   627   630    1
   626   630   631    1
   627   630   632    1
   628   630   638    1
   629   632   633    1
   630   633   634    2
   631   633   635    1
   632   635   636    1
   633   635   637    1
   634   635   647    1
   635   638   639    1
   636   638   640    1
   637   638   641    1
   638   641   642    1
   639   642   643    2
   640   642   644    1
   641   644   645    1
   642   644   646    1
   643   644   694    1
   644   647   648    1
   645   647   649    1
   646   647   650    1
   647   650   651    1
   648   650   652    1
   649   650   653    1
   650   653   654    1
   651   653   655    1
   652   653   656    1
   653   656   657    1
   654   656   658    1
   655   656   659    1
   656   659   660    1
   657   659   661    1
   658   659   662    1
   659   662   663    1
   660   662   664    1
   661   662   665    1
   662   665   666    1
   663   665   667    2
   664   667   668    1
   665   667   669    1
   666   669   670    1
   667   669   671    1
   668   669   672    1
   669   672   673    1
   670   672   674    1
   671   672   675    1
   672   675   676    1
   673   675   677    1
   674   675   678    1
   675   678   679    1
   676   678   680    1
   677   678   681    1
   678   681   682    1
   679   681   683    1
   680   681   684    1
   681   684   685    1
   682   684   686    1
   683   684   687    1
   684   687   688    1
   685   687   689    1
   686   687   690    1
   687   690   691    1
   688   690   692    1
   689   690   693    1
   690   694   695    1
   691   694   696    1
   692   694   697    1
   693   697   698    1
   694   697   699    1
   695   697   700    1
   696   700   701    1
   697   700   702    1
   698   700   703    1
   699   703   704    1
   700   703   705    1
   701   703   706    1
   702   706   707    1
   703   706   708    1
   704   706   709    1
   705   709   710    1
   706   709   711    1
   707   709   712    1
   708   712   713    1
   709   712   714    1
   710   712   715    1
   711   715   716    1
   712   715   717    1
   713   715   718    1
   714   718   719    1
   715   718   720    1
   716   718   721    1
   717   721   722    1
   718   721   723    1
   719   721   724    1
   720   724   725    1
   721   724   726    1
   722   724   727    1
   723   727   728    1
   724   727   729    1
   725   727   730    1
   726   730   731    1
   727   730   732    1
   728   730   733    1
   729   733   734    1
   730   733   735    1
   731   733   736    1
   732   737   738    1
   733   737   741    1
   734   737   745    1
   735   737   749    1
   736   738   739    1
   737   738   740    1
   738   738   753    1
   739   741   742    1
   740   741   743    1
   741   741   744    1
   742   745   746    1
   743   745   747    1
   744   745   748    1
   745   749   750    1
   746   749   751    1
   747   749   752    1
   748   753   754    1
   749   753   755    1
   750   753   759    1
   751   756   757    2
   752   756   758    1
   753   756   759    1
   754   756   760    1
   755   760   761    1
   756   761   762    1
   757   761   763    1
   758   761   764    1
   759   764   765    1
   760   764   766    1
   761   764   772    1
   762   766   767    1
   763   767   768    2
   764   767   769    1
   765   769   770    1
   766   769   771    1
   767   769   781    1
   768   772   773    1
   769   772   774    1
   770   772   775    1
   771   775   776    1
   772   776   777    2
   773   776   778    1
   774   778   779    1
   775   778   780    1
   776   778   828    1
   777   781   782    1
   778   781   783    1
   779   781   784    1
   780   784   785    1
   781   784   786    1
   782   784   787    1
   783   787   788    1
   784   787   789    1
   785   787   790    1
   786   790   791    1
   787   790   792    1
   788   790   793    1
   789   793   794    1
   790   793   795    1
   791   793   796    1
   792   796   797    1
   793   796   798    1
   794   796   799    1
   795   799   800    1
   796   799   801    2
   797   801   802    1
   798   801   803    1
   799   803   804    1
   800   803   805    1
   801   803   806    1
   802   806   807    1
   803   806   808    1
   804   806   809    1
   805   809   810    1
   806   809   811    1
   807   809   812    1
   808   812   813    1
   809   812   814    1
   810   812   815    1
   811   815   816    1
   812   815   817    1
   813   815   818    1
   814   818   819    1
   815   818   820    1
   816   818   821    1
   817   821   822    1
   818   821   823    1
   819   821   824    1
   820   824   825    1
   821   824   826    1
   822   824   827    1
   823   828   829    1
   824   828   830    1
   825   828   831    1
   826   831   832    1
   827   831   833    1
   828   831   834    1
   829   834   835    1
   830   834   836    1
   831   834   837    1
   832   837   838    1
   833   837   839    1
   834   837   840    1
   835   840   841    1
   836   840   842    1
   837   840   843    1
   838   843   844    1
   839   843   845    1
   840   843   846    1
   841   846   847    1
   842   846   848    1
   843   846   849    1
   844   849   850    1
   845   849   851    1
   846   849   852    1
   847   852   853    1
   848   852   854    1
   849   852   855    1
   850   855   856    1
   851   855   857    1
   852   855   858    1
   853   858   859    1
   854   858   860    1
   855   858   861    1
   856   861   862    1
   857   861   863    1
   858   861   864    1
   859   864   865    1
   860   864   866    1
   861   864   867    1
   862   867   868    1
   863   867   869    1
   864   867   870    1
   865   871   872    1
   866   871   875    1
   867   871   879    1
   868   871   883    1
   869   872   873    1
   870   872   874    1
   871   872   887    1
   872   875   876    1
   873   875   877    1
   874   875   878    1
   875   879   880    1
   876   879   881    1
   877   879   882    1
   878   883   884    1
   879   883   885    1
   880   883   886    1
   881   887   888    1
   882   887   889    1
   883   887   893    1
   884   890   891    2
   885   890   892    1
   886   890   893    1
   887   890   894    1
   888   894   895    1
   889   895   896    1
   890   895   897    1
   891   895   898    1
   892   898   899    1
   893   898   900    1
   894   898   906    1
   895   900   901    1
   896   901   902    2
   897   901   903    1
   898   903   904    1
   899   903   905    1
   900   903   915    1
   901   906   907    1
   902   906   908    1
   903   906   909    1
   904   909   910    1
   905   910   911    2
   906   910   912    1
   907   912   913    1
   908   912   914    1
   909   912   962    1
   910   915   916    1
   911   915   917    1
   912   915   918    1
   913   918   919    1
   914   918   920    1
   915   918   921    1
   916   921   922    1
   917   921   923    1
   918   921   924    1
   919   924   925    1
   920   924   926    1
   921   924   927    1
   922   927   928    1
   923   927   929    1
   924   927   930    1
   925   930   931    1
   926   930   932    1
   927   930   933    1
   928   933   934    1
   929   933   935    2
   930   935   936    1
   931   935   937    1
   932   937   938    1
   933   937   939    1
   934   937   940    1
   935   940   941    1
   936   940   942    1
   937   940   943    1
   938   943   944    1
   939   943   945    1
   940   943   946    1
   941   946   947    1
   942   946   948    1
   943   946   949    1
   944   949   950    1
   945   949   951    1
   946   949   952    1
   947   952   953    1
   948   952   954    1
   949   952   955    1
   950   955   956    1
   951   955   957    1
   952   955   958    1
   953   958   959    1
   954   958   960    1
   955   958   961    1
   956   962   963    1
   957   962   964    1
   958   962   965    1
   959   965   966    1
   960   965   967    1
   961   965   968    1
   962   968   969    1
   963   968   970    1
   964   968   971    1
   965   971   972    1
   966   971   973    1
   967   971   974    1
   968   974   975    1
   969   974   976    1
   970   974   977    1
   971   977   978    1
   972   977   979    1
   973   977   980    1
   974   980   981    1
   975   980   982    1
   976   980   983    1
   977   983   984    1
   978   983   985    1
   979   983   986    1
   980   986   987    1
   981   986   988    1
   982   986   989    1
   983   989   990    1
   984   989   991    1
   985   989   992    1
   986   992   993    1
   987   992   994    1
   988   992   995    1
   989   995   996    1
   990   995   997    1
   991   995   998    1
   992   998   999    1
   993   998  1000    1
   994   998  1001    1
   995  1001  1002    1
   996  1001  1003    1
   997  1001  1004    1
   998  1005  1006    1
   999  1005  1009    1
  1000  1005  1013    1
  1001  1005  1017    1
  1002  1006  1007    1
  1003  1006  1008    1
  1004  1006  1021    1
  1005  1009  1010    1
  1006  1009  1011    1
  1007  1009  1012    1
  1008  1013  1014    1
  1009  1013  1015    1
  1010  1013  1016    1
  1011  1017  1018    1
  1012  1017  1019    1
  1013  1017  1020    1
  1014  1021  1022    1
  1015  1021  1023    1
  1016  1021  1027    1
  1017  1024  1025    2
  1018  1024  1026    1
  1019  1024  1027    1
  1020  1024  1028    1
  1021  1028  1029    1
  1022  1029  1030    1
  1023  1029  1031    1
  1024  1029  1032    1
  1025  1032  1033    1
  1026  1032  1034    1
  1027  1032  1040    1
  1028  1034  1035    1
  1029  1035  1036    2
  1030  1035  1037    1
  1031  1037  1038    1
  1032  1037  1039    1
  1033  1037  1049    1
  1034  1040  1041    1
  1035  1040  1042    1
  1036  1040  1043    1
  1037  1043  1044    1
  1038  1044  1045    2
  1039  1044  1046    1
  1040  1046  1047    1
  1041  1046  1048    1
  1042  1046  1096    1
  1043  1049  1050    1
  1044  1049  1051    1
  1045  1049  1052    1
  1046  1052  1053    1
  1047  1052  1054    1
  1048  1052  1055    1
  1049  1055  1056    1
  1050  1055  1057    1
  1051  1055  1058    1
  1052  1058  1059    1
  1053  1058  1060    1
  1054  1058  1061    1
  1055  1061  1062    1
  1056  1061  1063    1
  1057  1061  1064    1
  1058  1064  1065    1
  1059  1064  1066    1
  1060  1064  1067    1
  1061  1067  1068    1
  1062  1067  1069    2
  1063  1069  1070    1
  1064  1069  1071    1
  1065  1071  1072    1
  1066  1071  1073    1
  1067  1071  1074    1
  1068  1074  1075    1
  1069  1074  1076    1
  1070  1074  1077    1
  1071  1077  1078    1
  1072  1077  1079    1
  1073  1077  1080    1
  1074  1080  1081    1
  1075  1080  1082    1
  1076  1080  1083    1
  1077  1083  1084    1
  1078  1083  1085    1
  1079  1083  1086    1
  1080  1086  1087    1
  1081  1086  1088    1
  1082  1086  1089    1
  1083  1089  1090    1
  1084  1089  1091    1
  1085  1089  1092    1
  1086  1092  1093    1
  1087  1092  1094    1
  1088  1092  1095    1
  1089  1096  1097    1
  1090  1096  1098    1
  1091  1096  1099    1
  1092  1099  1100    1
  1093  1099  1101    1
  1094  1099  1102    1
  1095  1102  1103    1
  1096  1102  1104    1
  1097  1102  1105    1
  1098  1105  1106    1
  1099  1105  1107    1
  1100  1105  1108    1
  1101  1108  1109    1
  1102  1108  1110    1
  1103  1108  1111    1
  1104  1111  1112    1
  1105  1111  1113    1
  1106  1111  1114    1
  1107  1114  1115    1
  1108  1114  1116    1
  1109  1114  1117    1
  1110  1117  1118    1
  1111  1117  1119    1
  1112  1117  1120    1
  1113  1120  1121    1
  1114  1120  1122    1
  1115  1120  1123    1
  1116  1123  1124    1
  1117  1123  1125    1
  1118  1123  1126    1
  1119  1126  1127    1
  1120  1126  1128    1
  1121  1126  1129    1
  1122  1129  1130    1
  1123  1129  1131    1
  1124  1129  1132    1
  1125  1132  1133    1
  1126  1132  1134    1
  1127  1132  1135    1
  1128  1135  1136    1
  1129  1135  1137    1
  1130  1135  1138    1
  1131  1139  1140    1
  1132  1139  1143    1
  1133  1139  1147    1
  1134  1139  1151    1
  1135  1140  1141    1
  1136  1140  1142    1
  1137  1140  1155    1
  1138  1143  1144    1
  1139  1143  1145    1
  1140  1143  1146    1
  1141  1147  1148    1
  1142  1147  1149    1
  1143  1147  1150    1
  1144  1151  1152    1
  1145  1151  1153    1
  1146  1151  1154    1
  1147  1155  1156    1
  1148  1155  1157    1
  1149  1155  1161    1
  1150  1158  1159    2
  1151  1158  1160    1
  1152  1158  1161    1
  1153  1158  1162    1
  1154  1162  1163    1
  1155  1163  1164    1
  1156  1163  1165    1
  1157  1163  1166    1
  1158  1166  1167    1
  1159  1166  1168    1
  1160  1166  1174    1
  1161  1168  1169    1
  1162  1169  1170    2
  1163  1169  1171    1
  1164  1171  1172    1
  1165  1171  1173    1
  1166  1171  1183    1
  1167  1174  1175    1
  1168  1174  1176    1
  1169  1174  1177    1
  1170  1177  1178    1
  1171  1178  1179    2
  1172  1178  1180    1
  1173  1180  1181    1
  1174  1180  1182    1
  1175  1180  1230    1
  1176  1183  1184    1
  1177  1183  1185    1
  1178  1183  1186    1
  1179  1186  1187    1
  1180  1186  1188    1
  1181  1186  1189    1
  1182  1189  1190    1
  1183  1189  1191    1
  1184  1189  1192    1
  1185  1192  1193    1
  1186  1192  1194    1
  1187  1192  1195    1
  1188  1195  1196    1
  1189  1195  1197    1
  1190  1195  1198    1
  1191  1198  1199    1
  1192  1198  1200    1
  1193  1198  1201    1
  1194  1201  1202    1
  1195  1201  1203    2
  1196  1203  1204    1
  1197  1203  1205    1
  1198  1205  1206    1
  1199  1205  1207    1
  1200  1205  1208    1
  1201  1208  1209    1
  1202  1208  1210    1
  1203  1208  1211    1
  1204  1211  1212    1
  1205  1211  1213    1
  1206  1211  1214    1
  1207  1214  1215    1
  1208  1214  1216    1
  1209  1214  1217    1
  1210  1217  1218    1
  1211  1217  1219    1
  1212  1217  1220    1
  1213  1220  1221    1
  1214  1220  1222    1
  1215  1220  1223    1
  1216  1223  1224    1
  1217  1223  1225    1
  1218  1223  1226    1
  1219  1226  1227    1
  1220  1226  1228    1
  1221  1226  1229    1
  1222  1230  1231    1
  1223  1230  1232    1
  1224  1230  1233    1
  1225  1233  1234    1
  1226  1233  1235    1
  1227  1233  1236    1
  1228  1236  1237    1
  1229  1236  1238    1
  1230  1236  1239    1
  1231  1239  1240    1
  1232  1239  1241    1
  1233  1239  1242    1
  1234  1242  1243    1
  1235  1242  1244    1
  1236  1242  1245    1
  1237  1245  1246    1
  1238  1245  1247    1
  1239  1245  1248    1
  1240  1248  1249    1
  1241  1248  1250    1
  1242  1248  1251    1
  1243  1251  1252    1
  1244  1251  1253    1
  1245  1251  1254    1
  1246  1254  1255    1
  1247  1254  1256    1
  1248  1254  1257    1
  1249  1257  1258    1
  1250  1257  1259    1
  1251  1257  1260    1
  1252  1260  1261    1
  1253  1260  1262    1
  1254  1260  1263    1
  1255  1263  1264    1
  1256  1263  1265    1
  1257  1263  1266    1
  1258  1266  1267    1
  1259  1266  1268    1
  1260  1266  1269    1
  1261  1269  1270    1
  1262  1269  1271    1
  1263  1269  1272    1
  1264  1273  1274    1
  1265  1273  1277    1
  1266  1273  1281    1
  1267  1273  1285    1
  1268  1274  1275    1
  1269  1274  1276    1
  1270  1274  1289    1
  1271  1277  1278    1
  1272  1277  1279    1
  1273  1277  1280    1
  1274  1281  1282    1
  1275  1281  1283    1
  1276  1281  1284    1
  1277  1285  1286    1
  1278  1285  1287    1
  1279  1285  1288    1
  1280  1289  1290    1
  1281  1289  1291    1
  1282  1289  1295    1
  1283  1292  1293    2
  1284  1292  1294    1
  1285  1292  1295    1
  1286  1292  1296    1
  1287  1296  1297    1
  1288  1297  1298    1
  1289  1297  1299    1
  1290  1297  1300    1
  1291  1300  1301    1
  1292  1300  1302    1
  1293  1300  1308    1
  1294  1302  1303    1
  1295  1303  1304    2
  1296  1303  1305    1
  1297  1305  1306    1
  1298  1305  1307    1
  1299  1305  1317    1
  1300  1308  1309    1
  1301  1308  1310    1
  1302  1308  1311    1
  1303  1311  1312    1
  1304  1312  1313    2
  1305  1312  1314    1
  1306  1314  1315    1
  1307  1314  1316    1
  1308  1314  1364    1
  1309  1317  1318    1
  1310  1317  1319    1
  1311  1317  1320    1
  1312  1320  1321    1
  1313  1320  1322    1
  1314  1320  1323    1
  1315  1323  1324    1
  1316  1323  1325    1
  1317  1323  1326    1
  1318  1326  1327    1
  1319  1326  1328    1
  1320  1326  1329    1
  1321  1329  1330    1
  1322  1329  1331    1
  1323  1329  1332    1
  1324  1332  1333    1
  1325  1332  1334    1
  1326  1332  1335    1
  1327  1335  1336    1
  1328  1335  1337    2
  1329  1337  1338    1
  1330  1337  1339    1
  1331  1339  1340    1
  1332  1339  1341    1
  1333  1339  1342    1
  1334  1342  1343    1
  1335  1342  1344    1
  1336  1342  1345    1
  1337  1345  1346    1
  1338  1345  1347    1
  1339  1345  1348    1
  1340  1348  1349    1
  1341  1348  1350    1
  1342  1348  1351    1
  1343  1351  1352    1
  1344  1351  1353    1
  1345  1351  1354    1
  1346  1354  1355    1
  1347  1354  1356    1
  1348  1354  1357    1
  1349  1357  1358    1
  1350  1357  1359    1
  1351  1357  1360    1
  1352  1360  1361    1
  1353  1360  1362    1
  1354  1360  1363    1
  1355  1364  1365    1
  1356  1364  1366    1
  1357  1364  1367    1
  1358  1367  1368    1
  1359  1367  1369    1
  1360  1367  1370    1
  1361  1370  1371    1
  1362  1370  1372    1
  1363  1370  1373    1
  1364  1373  1374    1
  1365  1373  1375    1
  1366  1373  1376    1
  1367  1376  1377    1
  1368  1376  1378    1
  1369  1376  1379    1
  1370  1379  1380    1
  1371  1379  1381    1
  1372  1379  1382    1
  1373  1382  1383    1
  1374  1382  1384    1
  1375  1382  1385    1
  1376  1385  1386    1
  1377  1385  1387    1
  1378  1385  1388    1
  1379  1388  1389    1
  1380  1388  1390    1
  1381  1388  1391    1
  1382  1391  1392    1
  1383  1391  1393    1
  1384  1391  1394    1
  1385  1394  1395    1
  1386  1394  1396    1
  1387  1394  1397    1
  1388  1397  1398    1
  1389  1397  1399    1
  1390  1397  1400    1
  1391  1400  1401    1
  1392  1400  1402    1
  1393  1400  1403    1
  1394  1403  1404    1
  1395  1403  1405    1
  1396  1403  1406    1
  1397  1407  1408    1
  1398  1407  1411    1
  1399  1407  1415    1
  1400  1407  1419    1
  1401  1408  1409    1
  1402  1408  1410    1
  1403  1408  1423    1
  1404  1411  1412    1
  1405  1411  1413    1
  1406  1411  1414    1
  1407  1415  1416    1
  1408  1415  1417    1
  1409  1415  1418    1
  1410  1419  1420    1
  1411  1419  1421    1
  1412  1419  1422    1
  1413  1423  1424    1
  1414  1423  1425    1
  1415  1423  1429    1
  1416  1426  1427    2
  1417  1426  1428    1
  1418  1426  1429    1
  1419  1426  1430    1
  1420  1430  1431    1
  1421  1431  1432    1
  1422  1431  1433    1
  1423  1431  1434    1
  1424  1434  1435    1
  1425  1434  1436    1
  1426  1434  1442    1
  1427  1436  1437    1
  1428  1437  1438    2
  1429  1437  1439    1
  1430  1439  1440    1
  1431  1439  1441    1
  1432  1439  1451    1
  1433  1442  1443    1
  1434  1442  1444    1
  1435  1442  1445    1
  1436  1445  1446    1
  1437  1446  1447    2
  1438  1446  1448    1
  1439  1448  1449    1
  1440  1448  1450    1
  1441  1448  1498    1
  1442  1451  1452    1
  1443  1451  1453    1
  1444  1451  1454    1
  1445  1454  1455    1
  1446  1454  1456    1
  1447  1454  1457    1
  1448  1457  1458    1
  1449  1457  1459    1
  1450  1457  1460    1
  1451  1460  1461    1
  1452  1460  1462    1
  1453  1460  1463    1
  1454  1463  1464    1
  1455  1463  1465    1
  1456  1463  1466    1
  1457  1466  1467    1
  1458  1466  1468    1
  1459  1466  1469    1
  1460  1469  1470    1
  1461  1469  1471    2
  1462  1471  1472    1
  1463  1471  1473    1
  1464  1473  1474    1
  1465  1473  1475    1
  1466  1473  1476    1
  1467  1476  1477    1
  1468  1476  1478    1
  1469  1476  1479    1
  1470  1479  1480    1
  1471  1479  1481    1
  1472  1479  1482    1
  1473  1482  1483    1
  1474  1482  1484    1
  1475  1482  1485    1
  1476  1485  1486    1
  1477  1485  1487    1
  1478  1485  1488    1
  1479  1488  1489    1
  1480  1488  1490    1
  1481  1488  1491    1
  1482  1491  1492    1
  1483  1491  1493    1
  1484  1491  1494    1
  1485  1494  1495    1
  1486  1494  1496    1
  1487  1494  1497    1
  1488  1498  1499    1
  1489  1498  1500    1
  1490  1498  1501    1
  1491  1501  1502    1
  1492  1501  1503    1
  1493  1501  1504    1
  1494  1504  1505    1
  1495  1504  1506    1
  1496  1504  1507    1
  1497  1507  1508    1
  1498  1507  1509    1
  1499  1507  1510    1
  1500  1510  1511    1
  1501  1510  1512    1
  1502  1510  1513    1
  1503  1513  1514    1
  1504  1513  1515    1
  1505  1513  1516    1
  1506  1516  1517    1
  1507  1516  1518    1
  1508  1516  1519    1
  1509  1519  1520    1
  1510  1519  1521    1
  1511  1519  1522    1
  1512  1522  1523    1
  1513  1522  1524    1
  1514  1522  1525    1
  1515  1525  1526    1
  1516  1525  1527    1
  1517  1525  1528    1
  1518  1528  1529    1
  1519  1528  1530    1
  1520  1528  1531    1
  1521  1531  1532    1
  1522  1531  1533    1
  1523  1531  1534    1
  1524  1534  1535    1
  1525  1534  1536    1
  1526  1534  1537    1
  1527  1537  1538    1
  1528  1537  1539    1
  1529  1537  1540    1
  1530  1541  1542    1
  1531  1541  1545    1
  1532  1541  1549    1
  1533  1541  1553    1
  1534  1542  1543    1
  1535  1542  1544    1
  1536  1542  1557    1
  1537  1545  1546    1
  1538  1545  1547    1
  1539  1545  1548    1
  1540  1549  1550    1
  1541  1549  1551    1
  1542  1549  1552    1
  1543  1553  1554    1
  1544  1553  1555    1
  1545  1553  1556    1
  1546  1557  1558    1
  1547  1557  1559    1
  1548  1557  1563    1
  1549  1560  1561    2
  1550  1560  1562    1
  1551  1560  1563    1
  1552  1560  1564    1
  1553  1564  1565    1
  1554  1565  1566    1
  1555  1565  1567    1
  1556  1565  1568    1
  1557  1568  1569    1
  1558  1568  1570    1
  1559  1568  1576    1
  1560  1570  1571    1
  1561  1571  1572    2
  1562  1571  1573    1
  1563  1573  1574    1
  1564  1573  1575    1
  1565  1573  1585    1
  1566  1576  1577    1
  1567  1576  1578    1
  1568  1576  1579    1
  1569  1579  1580    1
  1570  1580  1581    2
  1571  1580  1582    1
  1572  1582  1583    1
  1573  1582  1584    1
  1574  1582  1632    1
  1575  1585  1586    1
  1576  1585  1587    1
  1577  1585  1588    1
  1578  1588  1589    1
  1579  1588  1590    1
  1580  1588  1591    1
  1581  1591  1592    1
  1582  1591  1593    1
  1583  1591  1594    1
  1584  1594  1595    1
  1585  1594  1596    1
  1586  1594  1597    1
  1587  1597  1598    1
  1588  1597  1599    1
  1589  1597  1600    1
  1590  1600  1601    1
  1591  1600  1602    1
  1592  1600  1603    1
  1593  1603  1604    1
  1594  1603  1605    2
  1595  1605  1606    1
  1596  1605  1607    1
  1597  1607  1608    1
  1598  1607  1609    1
  1599  1607  1610    1
  1600  1610  1611    1
  1601  1610  1612    1
  1602  1610  1613    1
  1603  1613  1614    1
  1604  1613  1615    1
  1605  1613  1616    1
  1606  1616  1617    1
  1607  1616  1618    1
  1608  1616  1619    1
  1609  1619  1620    1
  1610  1619  1621    1
  1611  1619  1622    1
  1612  1622  1623    1
  1613  1622  1624    1
  1614  1622  1625    1
  1615  1625  1626    1
  1616  1625  1627    1
  1617  1625  1628    1
  1618  1628  1629    1
  1619  1628  1630    1
  1620  1628  1631    1
  1621  1632  1633    1
  1622  1632  1634    1
  1623  1632  1635    1
  1624  1635  1636    1
  1625  1635  1637    1
  1626  1635  1638    1
  1627  1638  1639    1
  1628  1638  1640    1
  1629  1638  1641    1
  1630  1641  1642    1
  1631  1641  1643    1
  1632  1641  1644    1
  1633  1644  1645    1
  1634  1644  1646    1
  1635  1644  1647    1
  1636  1647  1648    1
  1637  1647  1649    1
  1638  1647  1650    1
  1639  1650  1651    1
  1640  1650  1652    1
  1641  1650  1653    1
  1642  1653  1654    1
  1643  1653  1655    1
  1644  1653  1656    1
  1645  1656  1657    1
  1646  1656  1658    1
  1647  1656  1659    1
  1648  1659  1660    1
  1649  1659  1661    1
  1650  1659  1662    1
  1651  1662  1663    1
  1652  1662  1664    1
  1653  1662  1665    1
  1654  1665  1666    1
  1655  1665  1667    1
  1656  1665  1668    1
  1657  1668  1669    1
  1658  1668  1670    1
  1659  1668  1671    1
  1660  1671  1672    1
  1661  1671  1673    1
  1662  1671  1674    1
  1663  1675  1676    1
  1664  1675  1679    1
  1665  1675  1683    1
  1666  1675  1687    1
  1667  1676  1677    1
  1668  1676  1678    1
  1669  1676  1691    1
  1670  1679  1680    1
  1671  1679  1681    1
  1672  1679  1682    1
  1673  1683  1684    1
  1674  1683  1685    1
  1675  1683  1686    1
  1676  1687  1688    1
  1677  1687  1689    1
  1678  1687  1690    1
  1679  1691  1692    1
  1680  1691  1693    1
  1681  1691  1697    1
  1682  1694  1695    2
  1683  1694  1696    1
  1684  1694  1697    1
  1685  1694  1698    1
  1686  1698  1699    1
  1687  1699  1700    1
  1688  1699  1701    1
  1689  1699  1702    1
  1690  1702  1703    1
  1691  1702  1704    1
  1692  1702  1710    1
  1693  1704  1705    1
  1694  1705  1706    2
  1695  1705  1707    1
  1696  1707  1708    1
  1697  1707  1709    1
  1698  1707  1719    1
  1699  1710  1711    1
  1700  1710  1712    1
  1701  1710  1713    1
  1702  1713  1714    1
  1703  1714  1715    2
  1704  1714  1716    1
  1705  1716  1717    1
  1706  1716  1718    1
  1707  1716  1766    1
  1708  1719  1720    1
  1709  1719  1721    1
  1710  1719  1722    1
  1711  1722  1723    1
  1712  1722  1724    1
  1713  1722  1725    1
  1714  1725  1726    1
  1715  1725  1727    1
  1716  1725  1728    1
  1717  1728  1729    1
  1718  1728  1730    1
  1719  1728  1731    1
  1720  1731  1732    1
  1721  1731  1733    1
  1722  1731  1734    1
  1723  1734  1735    1
  1724  1734  1736    1
  1725  1734  1737    1
  1726  1737  1738    1
  1727  1737  1739    2
  1728  1739  1740    1
  1729  1739  1741    1
  1730  1741  1742    1
  1731  1741  1743    1
  1732  1741  1744    1
  1733  1744  1745    1
  1734  1744  1746    1
  1735  1744  1747    1
  1736  1747  1748    1
  1737  1747  1749    1
  1738  1747  1750    1
  1739  1750  1751    1
  1740  1750  1752    1
  1741  1750  1753    1
  1742  1753  1754    1
  1743  1753  1755    1
  1744  1753  1756    1
  1745  1756  1757    1
  1746  1756  1758    1
  1747  1756  1759    1
  1748  1759  1760    1
  1749  1759  1761    1
  1750  1759  1762    1
  1751  1762  1763    1
  1752  1762  1764    1
  1753  1762  1765    1
  1754  1766  1767    1
  1755  1766  1768    1
  1756  1766  1769    1
  1757  1769  1770    1
  1758  1769  1771    1
  1759  1769  1772    1
  1760  1772  1773    1
  1761  1772  1774    1
  1762  1772  1775    1
  1763  1775  1776    1
  1764  1775  1777    1
  1765  1775  1778    1
  1766  1778  1779    1
  1767  1778  1780    1
  1768  1778  1781    1
  1769  1781  1782    1
  1770  1781  1783    1
  1771  1781  1784    1
  1772  1784  1785    1
  1773  1784  1786    1
  1774  1784  1787    1
  1775  1787  1788    1
  1776  1787  1789    1
  1777  1787  1790    1
  1778  1790  1791    1
  1779  1790  1792    1
  1780  1790  1793    1
  1781  1793  1794    1
  1782  1793  1795    1
  1783  1793  1796    1
  1784  1796  1797    1
  1785  1796  1798    1
  1786  1796  1799    1
  1787  1799  1800    1
  1788  1799  1801    1
  1789  1799  1802    1
  1790  1802  1803    1
  1791  1802  1804    1
  1792  1802  1805    1
  1793  1805  1806    1
  1794  1805  1807    1
  1795  1805  1808    1
  1796  1809  1810    1
  1797  1809  1813    1
  1798  1809  1817    1
  1799  1809  1821    1
  1800  1810  1811    1
  1801  1810  1812    1
  1802  1810  1825    1
  1803  1813  1814    1
  1804  1813  1815    1
  1805  1813  1816    1
  1806  1817  1818    1
  1807  1817  1819    1
  1808  1817  1820    1
  1809  1821  1822    1
  1810  1821  1823    1
  1811  1821  1824    1
  1812  1825  1826    1
  1813  1825  1827    1
  1814  1825  1831    1
  1815  1828  1829    2
  1816  1828  1830    1
  1817  1828  1831    1
  1818  1828  1832    1
  1819  1832  1833    1
  1820  1833  1834    1
  1821  1833  1835    1
  1822  1833  1836    1
  1823  1836  1837    1
  1824  1836  1838    1
  1825  1836  1844    1
  1826  1838  1839    1
  1827  1839  1840    2
  1828  1839  1841    1
  1829  1841  1842    1
  1830  1841  1843    1
  1831  1841  1853    1
  1832  1844  1845    1
  1833  1844  1846    1
  1834  1844  1847    1
  1835  1847  1848    1
  1836  1848  1849    2
  1837  1848  1850    1
  1838  1850  1851    1
  1839  1850  1852    1
  1840  1850  1900    1
  1841  1853  1854    1
  1842  1853  1855    1
  1843  1853  1856    1
  1844  1856  1857    1
  1845  1856  1858    1
  1846  1856  1859    1
  1847  1859  1860    1
  1848  1859  1861    1
  1849  1859  1862    1
  1850  1862  1863    1
  1851  1862  1864    1
  1852  1862  1865    1
  1853  1865  1866    1
  1854  1865  1867    1
  1855  1865  1868    1
  1856  1868  1869    1
  1857  1868  1870    1
  1858  1868  1871    1
  1859  1871  1872    1
  1860  1871  1873    2
  1861  1873  1874    1
  1862  1873  1875    1
  1863  1875  1876    1
  1864  1875  1877    1
  1865  1875  1878    1
  1866  1878  1879    1
  1867  1878  1880    1
  1868  1878  1881    1
  1869  1881  1882    1
  1870  1881  1883    1
  1871  1881  1884    1
  1872  1884  1885    1
  1873  1884  1886    1
  1874  1884  1887    1
  1875  1887  1888    1
  1876  1887  1889    1
  1877  1887  1890    1
  1878  1890  1891    1
  1879  1890  1892    1
  1880  1890  1893    1
  1881  1893  1894    1
  1882  1893  1895    1
  1883  1893  1896    1
  1884  1896  1897    1
  1885  1896  1898    1
  1886  1896  1899    1
  1887  1900  1901    1
  1888  1900  1902    1
  1889  1900  1903    1
  1890  1903  1904    1
  1891  1903  1905    1
  1892  1903  1906    1
  1893  1906  1907    1
  1894  1906  1908    1
  1895  1906  1909    1
  1896  1909  1910    1
  1897  1909  1911    1
  1898  1909  1912    1
  1899  1912  1913    1
  1900  1912  1914    1
  1901  1912  1915    1
  1902  1915  1916    1
  1903  1915  1917    1
  1904  1915  1918    1
  1905  1918  1919    1
  1906  1918  1920    1
  1907  1918  1921    1
  1908  1921  1922    1
  1909  1921  1923    1
  1910  1921  1924    1
  1911  1924  1925    1
  1912  1924  1926    1
  1913  1924  1927    1
  1914  1927  1928    1
  1915  1927  1929    1
  1916  1927  1930    1
  1917  1930  1931    1
  1918  1930  1932    1
  1919  1930  1933    1
  1920  1933  1934    1
  1921  1933  1935    1
  1922  1933  1936    1
  1923  1936  1937    1
  1924  1936  1938    1
  1925  1936  1939    1
  1926  1939  1940    1
  1927  1939  1941    1
  1928  1939  1942    1
  1929  1943  1944    1
  1930  1943  1947    1
  1931  1943  1951    1
  1932  1943  1955    1
  1933  1944  1945    1
  1934  1944  1946    1
  1935  1944  1959    1
  1936  1947  1948    1
  1937  1947  1949    1
  1938  1947  1950    1
  1939  1951  1952    1
  1940  1951  1953    1
  1941  1951  1954    1
  1942  1955  1956    1
  1943  1955  1957    1
  1944  1955  1958    1
  1945  1959  1960    1
  1946  1959  1961    1
  1947  1959  1965    1
  1948  1962  1963    2
  1949  1962  1964    1
  1950  1962  1965    1
  1951  1962  1966    1
  1952  1966  1967    1
  1953  1967  1968    1
  1954  1967  1969    1
  1955  1967  1970    1
  1956  1970  1971    1
  1957  1970  1972    1
  1958  1970  1978    1
  1959  1972  1973    1
  1960  1973  1974    2
  1961  1973  1975    1
  1962  1975  1976    1
  1963  1975  1977    1
  1964  1975  1987    1
  1965  1978  1979    1
  1966  1978  1980    1
  1967  1978  1981    1
  1968  1981  1982    1
  1969  1982  1983    2
  1970  1982  1984    1
  1971  1984  1985    1
  1972  1984  1986    1
  1973  1984  2034    1
  1974  1987  1988    1
  1975  1987  1989    1
  1976  1987  1990    1
  1977  1990  1991    1
  1978  1990  1992    1
  1979  1990  1993    1
  1980  1993  1994    1
  1981  1993  1995    1
  1982  1993  1996    1
  1983  1996  1997    1
  1984  1996  1998    1
  1985  1996  1999    1
  1986  1999  2000    1
  1987  1999  2001    1
  1988  1999  2002    1
  1989  2002  2003    1
  1990  2002  2004    1
  1991  2002  2005    1
  1992  2005  2006    1
  1993  2005  2007    2
  1994  2007  2008    1
  1995  2007  2009    1
  1996  2009  2010    1
  1997  2009  2011    1
  1998  2009  2012    1
  1999  2012  2013    1
  2000  2012  2014    1
  2001  2012  2015    1
  2002  2015  2016    1
  2003  2015  2017    1
  2004  2015  2018    1
  2005  2018  2019    1
  2006  2018  2020    1
  2007  2018  2021    1
  2008  2021  2022    1
  2009  2021  2023    1
  2010  2021  2024    1
  2011  2024  2025    1
  2012  2024  2026    1
  2013  2024  2027    1
  2014  2027  2028    1
  2015  2027  2029    1
  2016  2027  2030    1
  2017  2030  2031    1
  2018  2030  2032    1
  2019  2030  2033    1
  2020  2034  2035    1
  2021  2034  2036    1
  2022  2034  2037    1
  2023  2037  2038    1
  2024  2037  2039    1
  2025  2037  2040    1
  2026  2040  2041    1
  2027  2040  2042    1
  2028  2040  2043    1
  2029  2043  2044    1
  2030  2043  2045    1
  2031  2043  2046    1
  2032  2046  2047    1
  2033  2046  2048    1
  2034  2046  2049    1
  2035  2049  2050    1
  2036  2049  2051    1
  2037  2049  2052    1
  2038  2052  2053    1
  2039  2052  2054    1
  2040  2052  2055    1
  2041  2055  2056    1
  2042  2055  2057    1
  2043  2055  2058    1
  2044  2058  2059    1
  2045  2058  2060    1
  2046  2058  2061    1
  2047  2061  2062    1
  2048  2061  2063    1
  2049  2061  2064    1
  2050  2064  2065    1
  2051  2064  2066    1
  2052  2064  2067    1
  2053  2067  2068    1
  2054  2067  2069    1
  2055  2067  2070    1
  2056  2070  2071    1
  2057  2070  2072    1
  2058  2070  2073    1
  2059  2073  2074    1
  2060  2073  2075    1
  2061  2073  2076    1
  2062  2077  2078    1
  2063  2077  2081    1
  2064  2077  2085    1
  2065  2077  2089    1
  2066  2078  2079    1
  2067  2078  2080    1
  2068  2078  2093    1
  2069  2081  2082    1
  2070  2081  2083    1
  2071  2081  2084    1
  2072  2085  2086    1
  2073  2085  2087    1
  2074  2085  2088    1
  2075  2089  2090    1
  2076  2089  2091    1
  2077  2089  2092    1
  2078  2093  2094    1
  2079  2093  2095    1
  2080  2093  2099    1
  2081  2096  2097    2
  2082  2096  2098    1
  2083  2096  2099    1
  2084  2096  2100    1
  2085  2100  2101    1
  2086  2101  2102    1
  2087  2101  2103    1
  2088  2101  2104    1
  2089  2104  2105    1
  2090  2104  2106    1
  2091  2104  2112    1
  2092  2106  2107    1
  2093  2107  2108    2
  2094  2107  2109    1
  2095  2109  2110    1
  2096  2109  2111    1
  2097  2109  2121    1
  2098  2112  2113    1
  2099  2112  2114    1
  2100  2112  2115    1
  2101  2115  2116    1
  2102  2116  2117    2
  2103  2116  2118    1
  2104  2118  2119    1
  2105  2118  2120    1
  2106  2118  2168    1
  2107  2121  2122    1
  2108  2121  2123    1
  2109  2121  2124    1
  2110  2124  2125    1
  2111  2124  2126    1
  2112  2124  2127    1
  2113  2127  2128    1
  2114  2127  2129    1
  2115  2127  2130    1
  2116  2130  2131    1
  2117  2130  2132    1
  2118  2130  2133    1
  2119  2133  2134    1
  2120  2133  2135    1
  2121  2133  2136    1
  2122  2136  2137    1
  2123  2136  2138    1
  2124  2136  2139    1
  2125  2139  2140    1
  2126  2139  2141    2
  2127  2141  2142    1
  2128  2141  2143    1
  2129  2143  2144    1
  2130  2143  2145    1
  2131  2143  2146    1
  2132  2146  2147    1
  2133  2146  2148    1
  2134  2146  2149    1
  2135  2149  2150    1
  2136  2149  2151    1
  2137  2149  2152    1
  2138  2152  2153    1
  2139  2152  2154    1
  2140  2152  2155    1
  2141  2155  2156    1
  2142  2155  2157    1
  2143  2155  2158    1
  2144  2158  2159    1
  2145  2158  2160    1
  2146  2158  2161    1
  2147  2161  2162    1
  2148  2161  2163    1
  2149  2161  2164    1
  2150  2164  2165    1
  2151  2164  2166    1
  2152  2164  2167    1
  2153  2168  2169    1
  2154  2168  2170    1
  2155  2168  2171    1
  2156  2171  2172    1
  2157  2171  2173    1
  2158  2171  2174    1
  2159  2174  2175    1
  2160  2174  2176    1
  2161  2174  2177    1
  2162  2177  2178    1
  2163  2177  2179    1
  2164  2177  2180    1
  2165  2180  2181    1
  2166  2180  2182    1
  2167  2180  2183    1
  2168  2183  2184    1
  2169  2183  2185    1
  2170  2183  2186    1
  2171  2186  2187    1
  2172  2186  2188    1
  2173  2186  2189    1
  2174  2189  2190    1
  2175  2189  2191    1
  2176  2189  2192    1
  2177  2192  2193    1
  2178  2192  2194    1
  2179  2192  2195    1
  2180  2195  2196    1
  2181  2195  2197    1
  2182  2195  2198    1
  2183  2198  2199    1
  2184  2198  2200    1
  2185  2198  2201    1
  2186  2201  2202    1
  2187  2201  2203    1
  2188  2201  2204    1
  2189  2204  2205    1
  2190  2204  2206    1
  2191  2204  2207    1
  2192  2207  2208    1
  2193  2207  2209    1
  2194  2207  2210    1
  2195  2211  2212    1
  2196  2211  2215    1
  2197  2211  2219    1
  2198  2211  2223    1
  2199  2212  2213    1
  2200  2212  2214    1
  2201  2212  2227    1
  2202  2215  2216    1
  2203  2215  2217    1
  2204  2215  2218    1
  2205  2219  2220    1
  2206  2219  2221    1
  2207  2219  2222    1
  2208  2223  2224    1
  2209  2223  2225    1
  2210  2223  2226    1
  2211  2227  2228    1
  2212  2227  2229    1
  2213  2227  2233    1
  2214  2230  2231    2
  2215  2230  2232    1
  2216  2230  2233    1
  2217  2230  2234    1
  2218  2234  2235    1
  2219  2235  2236    1
  2220  2235  2237    1
  2221  2235  2238    1
  2222  2238  2239    1
  2223  2238  2240    1
  2224  2238  2246    1
  2225  2240  2241    1
  2226  2241  2242    2
  2227  2241  2243    1
  2228  2243  2244    1
  2229  2243  2245    1
  2230  2243  2255    1
  2231  2246  2247    1
  2232  2246  2248    1
  2233  2246  2249    1
  2234  2249  2250    1
  2235  2250  2251    2
  2236  2250  2252    1
  2237  2252  2253    1
  2238  2252  2254    1
  2239  2252  2302    1
  2240  2255  2256    1
  2241  2255  2257    1
  2242  2255  2258    1
  2243  2258  2259    1
  2244  2258  2260    1
  2245  2258  2261    1
  2246  2261  2262    1
  2247  2261  2263    1
  2248  2261  2264    1
  2249  2264  2265    1
  2250  2264  2266    1
  2251  2264  2267    1
  2252  2267  2268    1
  2253  2267  2269    1
  2254  2267  2270    1
  2255  2270  2271    1
  2256  2270  2272    1
  2257  2270  2273    1
  2258  2273  2274    1
  2259  2273  2275    2
  2260  2275  2276    1
  2261  2275  2277    1
  2262  2277  2278    1
  2263  2277  2279    1
  2264  2277  2280    1
  2265  2280  2281    1
  2266  2280  2282    1
  2267  2280  2283    1
  2268  2283  2284    1
  2269  2283  2285    1
  2270  2283  2286    1
  2271  2286  2287    1
  2272  2286  2288    1
  2273  2286  2289    1
  2274  2289  2290    1
  2275  2289  2291    1
  2276  2289  2292    1
  2277  2292  2293    1
  2278  2292  2294    1
  2279  2292  2295    1
  2280  2295  2296    1
  2281  2295  2297    1
  2282  2295  2298    1
  2283  2298  2299    1
  2284  2298  2300    1
  2285  2298  2301    1
  2286  2302  2303    1
  2287  2302  2304    1
  2288  2302  2305    1
  2289  2305  2306    1
  2290  2305  2307    1
  2291  2305  2308    1
  2292  2308  2309    1
  2293  2308  2310    1
  2294  2308  2311    1
  2295  2311  2312    1
  2296  2311  2313    1
  2297  2311  2314    1
  2298  2314  2315    1
  2299  2314  2316    1
  2300  2314  2317    1
  2301  2317  2318    1
  2302  2317  2319    1
  2303  2317  2320    1
  2304  2320  2321    1
  2305  2320  2322    1
  2306  2320  2323    1
  2307  2323  2324    1
  2308  2323  2325    1
  2309  2323  2326    1
  2310  2326  2327    1
  2311  2326  2328    1
  2312  2326  2329    1
  2313  2329  2330    1
  2314  2329  2331    1
  2315  2329  2332    1
  2316  2332  2333    1
  2317  2332  2334    1
  2318  2332  2335    1
  2319  2335  2336    1
  2320  2335  2337    1
  2321  2335  2338    1
  2322  2338  2339    1
  2323  2338  2340    1
  2324  2338  2341    1
  2325  2341  2342    1
  2326  2341  2343    1
  2327  2341  2344    1
  2328  2345  2346    1
  2329  2345  2349    1
  2330  2345  2353    1
  2331  2345  2357    1
  2332  2346  2347    1
  2333  2346  2348    1
  2334  2346  2361    1
  2335  2349  2350    1
  2336  2349  2351    1
  2337  2349  2352    1
  2338  2353  2354    1
  2339  2353  2355    1
  2340  2353  2356    1
  2341  2357  2358    1
  2342  2357  2359    1
  2343  2357  2360    1
  2344  2361  2362    1
  2345  2361  2363    1
  2346  2361  2367    1
  2347  2364  2365    2
  2348  2364  2366    1
  2349  2364  2367    1
  2350  2364  2368    1
  2351  2368  2369    1
  2352  2369  2370    1
  2353  2369  2371    1
  2354  2369  2372    1
  2355  2372  2373    1
  2356  2372  2374    1
  2357  2372  2380    1
  2358  2374  2375    1
  2359  2375  2376    2
  2360  2375  2377    1
  2361  2377  2378    1
  2362  2377  2379    1
  2363  2377  2389    1
  2364  2380  2381    1
  2365  2380  2382    1
  2366  2380  2383    1
  2367  2383  2384    1
  2368  2384  2385    2
  2369  2384  2386    1
  2370  2386  2387    1
  2371  2386  2388    1
  2372  2386  2436    1
  2373  2389  2390    1
  2374  2389  2391    1
  2375  2389  2392    1
  2376  2392  2393    1
  2377  2392  2394    1
  2378  2392  2395    1
  2379  2395  2396    1
  2380  2395  2397    1
  2381  2395  2398    1
  2382  2398  2399    1
  2383  2398  2400    1
  2384  2398  2401    1
  2385  2401  2402    1
  2386  2401  2403    1
  2387  2401  2404    1
  2388  2404  2405    1
  2389  2404  2406    1
  2390  2404  2407    1
  2391  2407  2408    1
  2392  2407  2409    2
  2393  2409  2410    1
  2394  2409  2411    1
  2395  2411  2412    1
  2396  2411  2413    1
  2397  2411  2414    1
  2398  2414  2415    1
  2399  2414  2416    1
  2400  2414  2417    1
  2401  2417  2418    1
  2402  2417  2419    1
  2403  2417  2420    1
  2404  2420  2421    1
  2405  2420  2422    1
  2406  2420  2423    1
  2407  2423  2424    1
  2408  2423  2425    1
  2409  2423  2426    1
  2410  2426  2427    1
  2411  2426  2428    1
  2412  2426  2429    1
  2413  2429  2430    1
  2414  2429  2431    1
  2415  2429  2432    1
  2416  2432  2433    1
  2417  2432  2434    1
  2418  2432  2435    1
  2419  2436  2437    1
  2420  2436  2438    1
  2421  2436  2439    1
  2422  2439  2440    1
  2423  2439  2441    1
  2424  2439  2442    1
  2425  2442  2443    1
  2426  2442  2444    1
  2427  2442  2445    1
  2428  2445  2446    1
  2429  2445  2447    1
  2430  2445  2448    1
  2431  2448  2449    1
  2432  2448  2450    1
  2433  2448  2451    1
  2434  2451  2452    1
  2435  2451  2453    1
  2436  2451  2454    1
  2437  2454  2455    1
  2438  2454  2456    1
  2439  2454  2457    1
  2440  2457  2458    1
  2441  2457  2459    1
  2442  2457  2460    1
  2443  2460  2461    1
  2444  2460  2462    1
  2445  2460  2463    1
  2446  2463  2464    1
  2447  2463  2465    1
  2448  2463  2466    1
  2449  2466  2467    1
  2450  2466  2468    1
  2451  2466  2469    1
  2452  2469  2470    1
  2453  2469  2471    1
  2454  2469  2472    1
  2455  2472  2473    1
  2456  2472  2474    1
  2457  2472  2475    1
  2458  2475  2476    1
  2459  2475  2477    1
  2460  2475  2478    1
  2461  2479  2480    1
  2462  2479  2483    1
  2463  2479  2487    1
  2464  2479  2491    1
  2465  2480  2481    1
  2466  2480  2482    1
  2467  2480  2495    1
  2468  2483  2484    1
  2469  2483  2485    1
  2470  2483  2486    1
  2471  2487  2488    1
  2472  2487  2489    1
  2473  2487  2490    1
  2474  2491  2492    1
  2475  2491  2493    1
  2476  2491  2494    1
  2477  2495  2496    1
  2478  2495  2497    1
  2479  2495  2501    1
  2480  2498  2499    2
  2481  2498  2500    1
  2482  2498  2501    1
  2483  2498  2502    1
  2484  2502  2503    1
  2485  2503  2504    1
  2486  2503  2505    1
  2487  2503  2506    1
  2488  2506  2507    1
  2489  2506  2508    1
  2490  2506  2514    1
  2491  2508  2509    1
  2492  2509  2510    2
  2493  2509  2511    1
  2494  2511  2512    1
  2495  2511  2513    1
  2496  2511  2523    1
  2497  2514  2515    1
  2498  2514  2516    1
  2499  2514  2517    1
  2500  2517  2518    1
  2501  2518  2519    2
  2502  2518  2520    1
  2503  2520  2521    1
  2504  2520  2522    1
  2505  2520  2570    1
  2506  2523  2524    1
  2507  2523  2525    1
  2508  2523  2526    1
  2509  2526  2527    1
  2510  2526  2528    1
  2511  2526  2529    1
  2512  2529  2530    1
  2513  2529  2531    1
  2514  2529  2532    1
  2515  2532  2533    1
  2516  2532  2534    1
  2517  2532  2535    1
  2518  2535  2536    1
  2519  2535  2537    1
  2520  2535  2538    1
  2521  2538  2539    1
  2522  2538  2540    1
  2523  2538  2541    1
  2524  2541  2542    1
  2525  2541  2543    2
  2526  2543  2544    1
  2527  2543  2545    1
  2528  2545  2546    1
  2529  2545  2547    1
  2530  2545  2548    1
  2531  2548  2549    1
  2532  2548  2550    1
  2533  2548  2551    1
  2534  2551  2552    1
  2535  2551  2553    1
  2536  2551  2554    1
  2537  2554  2555    1
  2538  2554  2556    1
  2539  2554  2557    1
  2540  2557  2558    1
  2541  2557  2559    1
  2542  2557  2560    1
  2543  2560  2561    1
  2544  2560  2562    1
  2545  2560  2563    1
  2546  2563  2564    1
  2547  2563  2565    1
  2548  2563  2566    1
  2549  2566  2567    1
  2550  2566  2568    1
  2551  2566  2569    1
  2552  2570  2571    1
  2553  2570  2572    1
  2554  2570  2573    1
  2555  2573  2574    1
  2556  2573  2575    1
  2557  2573  2576    1
  2558  2576  2577    1
  2559  2576  2578    1
  2560  2576  2579    1
  2561  2579  2580    1
  2562  2579  2581    1
  2563  2579  2582    1
  2564  2582  2583    1
  2565  2582  2584    1
  2566  2582  2585    1
  2567  2585  2586    1
  2568  2585  2587    1
  2569  2585  2588    1
  2570  2588  2589    1
  2571  2588  2590    1
  2572  2588  2591    1
  2573  2591  2592    1
  2574  2591  2593    1
  2575  2591  2594    1
  2576  2594  2595    1
  2577  2594  2596    1
  2578  2594  2597    1
  2579  2597  2598    1
  2580  2597  2599    1
  2581  2597  2600    1
  2582  2600  2601    1
  2583  2600  2602    1
  2584  2600  2603    1
  2585  2603  2604    1
  2586  2603  2605    1
  2587  2603  2606    1
  2588  2606  2607    1
  2589  2606  2608    1
  2590  2606  2609    1
  2591  2609  2610    1
  2592  2609  2611    1
  2593  2609  2612    1
  2594  2613  2614    1
  2595  2613  2617    1
  2596  2613  2621    1
  2597  2613  2625    1
  2598  2614  2615    1
  2599  2614  2616    1
  2600  2614  2629    1
  2601  2617  2618    1
  2602  2617  2619    1
  2603  2617  2620    1
  2604  2621  2622    1
  2605  2621  2623    1
  2606  2621  2624    1
  2607  2625  2626    1
  2608  2625  2627    1
  2609  2625  2628    1
  2610  2629  2630    1
  2611  2629  2631    1
  2612  2629  2635    1
  2613  2632  2633    2
  2614  2632  2634    1
  2615  2632  2635    1
  2616  2632  2636    1
  2617  2636  2637    1
  2618  2637  2638    1
  2619  2637  2639    1
  2620  2637  2640    1
  2621  2640  2641    1
  2622  2640  2642    1
  2623  2640  2648    1
  2624  2642  2643    1
  2625  2643  2644    2
  2626  2643  2645    1
  2627  2645  2646    1
  2628  2645  2647    1
  2629  2645  2657    1
  2630  2648  2649    1
  2631  2648  2650    1
  2632  2648  2651    1
  2633  2651  2652    1
  2634  2652  2653    2
  2635  2652  2654    1
  2636  2654  2655    1
  2637  2654  2656    1
  2638  2654  2704    1
  2639  2657  2658    1
  2640  2657  2659    1
  2641  2657  2660    1
  2642  2660  2661    1
  2643  2660  2662    1
  2644  2660  2663    1
  2645  2663  2664    1
  2646  2663  2665    1
  2647  2663  2666    1
  2648  2666  2667    1
  2649  2666  2668    1
  2650  2666  2669    1
  2651  2669  2670    1
  2652  2669  2671    1
  2653  2669  2672    1
  2654  2672  2673    1
  2655  2672  2674    1
  2656  2672  2675    1
  2657  2675  2676    1
  2658  2675  2677    2
  2659  2677  2678    1
  2660  2677  2679    1
  2661  2679  2680    1
  2662  2679  2681    1
  2663  2679  2682    1
  2664  2682  2683    1
  2665  2682  2684    1
  2666  2682  2685    1
  2667  2685  2686    1
  2668  2685  2687    1
  2669  2685  2688    1
  2670  2688  2689    1
  2671  2688  2690    1
  2672  2688  2691    1
  2673  2691  2692    1
  2674  2691  2693    1
  2675  2691  2694    1
  2676  2694  2695    1
  2677  2694  2696    1
  2678  2694  2697    1
  2679  2697  2698    1
  2680  2697  2699    1
  2681  2697  2700    1
  2682  2700  2701    1
  2683  2700  2702    1
  2684  2700  2703    1
  2685  2704  2705    1
  2686  2704  2706    1
  2687  2704  2707    1
  2688  2707  2708    1
  2689  2707  2709    1
  2690  2707  2710    1
  2691  2710  2711    1
  2692  2710  2712    1
  2693  2710  2713    1
  2694  2713  2714    1
  2695  2713  2715    1
  2696  2713  2716    1
  2697  2716  2717    1
  2698  2716  2718    1
  2699  2716  2719    1
  2700  2719  2720    1
  2701  2719  2721    1
  2702  2719  2722    1
  2703  2722  2723    1
  2704  2722  2724    1
  2705  2722  2725    1
  2706  2725  2726    1
  2707  2725  2727    1
  2708  2725  2728    1
  2709  2728  2729    1
  2710  2728  2730    1
  2711  2728  2731    1
  2712  2731  2732    1
  2713  2731  2733    1
  2714  2731  2734    1
  2715  2734  2735    1
  2716  2734  2736    1
  2717  2734  2737    1
  2718  2737  2738    1
  2719  2737  2739    1
  2720  2737  2740    1
  2721  2740  2741    1
  2722  2740  2742    1
  2723  2740  2743    1
  2724  2743  2744    1
  2725  2743  2745    1
  2726  2743  2746    1
  2727  2747  2748    1
  2728  2747  2751    1
  2729  2747  2755    1
  2730  2747  2759    1
  2731  2748  2749    1
  2732  2748  2750    1
  2733  2748  2763    1
  2734  2751  2752    1
  2735  2751  2753    1
  2736  2751  2754    1
  2737  2755  2756    1
  2738  2755  2757    1
  2739  2755  2758    1
  2740  2759  2760    1
  2741  2759  2761    1
  2742  2759  2762    1
  2743  2763  2764    1
  2744  2763  2765    1
  2745  2763  2769    1
  2746  2766  2767    2
  2747  2766  2768    1
  2748  2766  2769    1
  2749  2766  2770    1
  2750  2770  2771    1
  2751  2771  2772    1
  2752  2771  2773    1
  2753  2771  2774    1
  2754  2774  2775    1
  2755  2774  2776    1
  2756  2774  2782    1
  2757  2776  2777    1
  2758  2777  2778    2
  2759  2777  2779    1
  2760  2779  2780    1
  2761  2779  2781    1
  2762  2779  2791    1
  2763  2782  2783    1
  2764  2782  2784    1
  2765  2782  2785    1
  2766  2785  2786    1
  2767  2786  2787    2
  2768  2786  2788    1
  2769  2788  2789    1
  2770  2788  2790    1
  2771  2788  2838    1
  2772  2791  2792    1
  2773  2791  2793    1
  2774  2791  2794    1
  2775  2794  2795    1
  2776  2794  2796    1
  2777  2794  2797    1
  2778  2797  2798    1
  2779  2797  2799    1
  2780  2797  2800    1
  2781  2800  2801    1
  2782  2800  2802    1
  2783  2800  2803    1
  2784  2803  2804    1
  2785  2803  2805    1
  2786  2803  2806    1
  2787  2806  2807    1
  2788  2806  2808    1
  2789  2806  2809    1
  2790  2809  2810    1
  2791  2809  2811    2
  2792  2811  2812    1
  2793  2811  2813    1
  2794  2813  2814    1
  2795  2813  2815    1
  2796  2813  2816    1
  2797  2816  2817    1
  2798  2816  2818    1
  2799  2816  2819    1
  2800  2819  2820    1
  2801  2819  2821    1
  2802  2819  2822    1
  2803  2822  2823    1
  2804  2822  2824    1
  2805  2822  2825    1
  2806  2825  2826    1
  2807  2825  2827    1
  2808  2825  2828    1
  2809  2828  2829    1
  2810  2828  2830    1
  2811  2828  2831    1
  2812  2831  2832    1
  2813  2831  2833    1
  2814  2831  2834    1
  2815  2834  2835    1
  2816  2834  2836    1
  2817  2834  2837    1
  2818  2838  2839    1
  2819  2838  2840    1
  2820  2838  2841    1
  2821  2841  2842    1
  2822  2841  2843    1
  2823  2841  2844    1
  2824  2844  2845    1
  2825  2844  2846    1
  2826  2844  2847    1
  2827  2847  2848    1
  2828  2847  2849    1
  2829  2847  2850    1
  2830  2850  2851    1
  2831  2850  2852    1
  2832  2850  2853    1
  2833  2853  2854    1
  2834  2853  2855    1
  2835  2853  2856    1
  2836  2856  2857    1
  2837  2856  2858    1
  2838  2856  2859    1
  2839  2859  2860    1
  2840  2859  2861    1
  2841  2859  2862    1
  2842  2862  2863    1
  2843  2862  2864    1
  2844  2862  2865    1
  2845  2865  2866    1
  2846  2865  2867    1
  2847  2865  2868    1
  2848  2868  2869    1
  2849  2868  2870    1
  2850  2868  2871    1
  2851  2871  2872    1
  2852  2871  2873    1
  2853  2871  2874    1
  2854  2874  2875    1
  2855  2874  2876    1
  2856  2874  2877    1
  2857  2877  2878    1
  2858  2877  2879    1
  2859  2877  2880    1
  2860  2881  2882    1
  2861  2881  2885    1
  2862  2881  2889    1
  2863  2881  2893    1
  2864  2882  2883    1
  2865  2882  2884    1
  2866  2882  2897    1
  2867  2885  2886    1
  2868  2885  2887    1
  2869  2885  2888    1
  2870  2889  2890    1
  2871  2889  2891    1
  2872  2889  2892    1
  2873  2893  2894    1
  2874  2893  2895    1
  2875  2893  2896    1
  2876  2897  2898    1
  2877  2897  2899    1
  2878  2897  2903    1
  2879  2900  2901    2
  2880  2900  2902    1
  2881  2900  2903    1
  2882  2900  2904    1
  2883  2904  2905    1
  2884  2905  2906    1
  2885  2905  2907    1
  2886  2905  2908    1
  2887  2908  2909    1
  2888  2908  2910    1
  2889  2908  2916    1
  2890  2910  2911    1
  2891  2911  2912    2
  2892  2911  2913    1
  2893  2913  2914    1
  2894  2913  2915    1
  2895  2913  2925    1
  2896  2916  2917    1
  2897  2916  2918    1
  2898  2916  2919    1
  2899  2919  2920    1
  2900  2920  2921    2
  2901  2920  2922    1
  2902  2922  2923    1
  2903  2922  2924    1
  2904  2922  2972    1
  2905  2925  2926    1
  2906  2925  2927    1
  2907  2925  2928    1
  2908  2928  2929    1
  2909  2928  2930    1
  2910  2928  2931    1
  2911  2931  2932    1
  2912  2931  2933    1
  2913  2931  2934    1
  2914  2934  2935    1
  2915  2934  2936    1
  2916  2934  2937    1
  2917  2937  2938    1
  2918  2937  2939    1
  2919  2937  2940    1
  2920  2940  2941    1
  2921  2940  2942    1
  2922  2940  2943    1
  2923  2943  2944    1
  2924  2943  2945    2
  2925  2945  2946    1
  2926  2945  2947    1
  2927  2947  2948    1
  2928  2947  2949    1
  2929  2947  2950    1
  2930  2950  2951    1
  2931  2950  2952    1
  2932  2950  2953    1
  2933  2953  2954    1
  2934  2953  2955    1
  2935  2953  2956    1
  2936  2956  2957    1
  2937  2956  2958    1
  2938  2956  2959    1
  2939  2959  2960    1
  2940  2959  2961    1
  2941  2959  2962    1
  2942  2962  2963    1
  2943  2962  2964    1
  2944  2962  2965    1
  2945  2965  2966    1
  2946  2965  2967    1
  2947  2965  2968    1
  2948  2968  2969    1
  2949  2968  2970    1
  2950  2968  2971    1
  2951  2972  2973    1
  2952  2972  2974    1
  2953  2972  2975    1
  2954  2975  2976    1
  2955  2975  2977    1
  2956  2975  2978    1
  2957  2978  2979    1
  2958  2978  2980    1
  2959  2978  2981    1
  2960  2981  2982    1
  2961  2981  2983    1
  2962  2981  2984    1
  2963  2984  2985    1
  2964  2984  2986    1
  2965  2984  2987    1
  2966  2987  2988    1
  2967  2987  2989    1
  2968  2987  2990    1
  2969  2990  2991    1
  2970  2990  2992    1
  2971  2990  2993    1
  2972  2993  2994    1
  2973  2993  2995    1
  2974  2993  2996    1
  2975  2996  2997    1
  2976  2996  2998    1
  2977  2996  2999    1
  2978  2999  3000    1
  2979  2999  3001    1
  2980  2999  3002    1
  2981  3002  3003    1
  2982  3002  3004    1
  2983  3002  3005    1
  2984  3005  3006    1
  2985  3005  3007    1
  2986  3005  3008    1
  2987  3008  3009    1
  2988  3008  3010    1
  2989  3008  3011    1
  2990  3011  3012    1
  2991  3011  3013    1
  2992  3011  3014    1
  2993  3015  3016    1
  2994  3015  3019    1
  2995  3015  3023    1
  2996  3015  3027    1
  2997  3016  3017    1
  2998  3016  3018    1
  2999  3016  3031    1
  3000  3019  3020    1
  3001  3019  3021    1
  3002  3019  3022    1
  3003  3023  3024    1
  3004  3023  3025    1
  3005  3023  3026    1
  3006  3027  3028    1
  3007  3027  3029    1
  3008  3027  3030    1
  3009  3031  3032    1
  3010  3031  3033    1
  3011  3031  3037    1
  3012  3034  3035    2
  3013  3034  3036    1
  3014  3034  3037    1
  3015  3034  3038    1
  3016  3038  3039    1
  3017  3039  3040    1
  3018  3039  3041    1
  3019  3039  3042    1
  3020  3042  3043    1
  3021  3042  3044    1
  3022  3042  3050    1
  3023  3044  3045    1
  3024  3045  3046    2
  3025  3045  3047    1
  3026  3047  3048    1
  3027  3047  3049    1
  3028  3047  3059    1
  3029  3050  3051    1
  3030  3050  3052    1
  3031  3050  3053    1
  3032  3053  3054    1
  3033  3054  3055    2
  3034  3054  3056    1
  3035  3056  3057    1
  3036  3056  3058    1
  3037  3056  3106    1
  3038  3059  3060    1
  3039  3059  3061    1
  3040  3059  3062    1
  3041  3062  3063    1
  3042  3062  3064    1
  3043  3062  3065    1
  3044  3065  3066    1
  3045  3065  3067    1
  3046  3065  3068    1
  3047  3068  3069    1
  3048  3068  3070    1
  3049  3068  3071    1
  3050  3071  3072    1
  3051  3071  3073    1
  3052  3071  3074    1
  3053  3074  3075    1
  3054  3074  3076    1
  3055  3074  3077    1
  3056  3077  3078    1
  3057  3077  3079    2
  3058  3079  3080    1
  3059  3079  3081    1
  3060  3081  3082    1
  3061  3081  3083    1
  3062  3081  3084    1
  3063  3084  3085    1
  3064  3084  3086    1
  3065  3084  3087    1
  3066  3087  3088    1
  3067  3087  3089    1
  3068  3087  3090    1
  3069  3090  3091    1
  3070  3090  3092    1
  3071  3090  3093    1
  3072  3093  3094    1
  3073  3093  3095    1
  3074  3093  3096    1
  3075  3096  3097    1
  3076  3096  3098    1
  3077  3096  3099    1
  3078  3099  3100    1
  3079  3099  3101    1
  3080  3099  3102    1
  3081  3102  3103    1
  3082  3102  3104    1
  3083  3102  3105    1
  3084  3106  3107    1
  3085  3106  3108    1
  3086  3106  3109    1
  3087  3109  3110    1
  3088  3109  3111    1
  3089  3109  3112    1
  3090  3112  3113    1
  3091  3112  3114    1
  3092  3112  3115    1
  3093  3115  3116    1
  3094  3115  3117    1
  3095  3115  3118    1
  3096  3118  3119    1
  3097  3118  3120    1
  3098  3118  3121    1
  3099  3121  3122    1
  3100  3121  3123    1
  3101  3121  3124    1
  3102  3124  3125    1
  3103  3124  3126    1
  3104  3124  3127    1
  3105  3127  3128    1
  3106  3127  3129    1
  3107  3127  3130    1
  3108  3130  3131    1
  3109  3130  3132    1
  3110  3130  3133    1
  3111  3133  3134    1
  3112  3133  3135    1
  3113  3133  3136    1
  3114  3136  3137    1
  3115  3136  3138    1
  3116  3136  3139    1
  3117  3139  3140    1
  3118  3139  3141    1
  3119  3139  3142    1
  3120  3142  3143    1
  3121  3142  3144    1
  3122  3142  3145    1
  3123  3145  3146    1
  3124  3145  3147    1
  3125  3145  3148    1
  3126  3149  3150    1
  3127  3149  3153    1
  3128  3149  3157    1
  3129  3149  3161    1
  3130  3150  3151    1
  3131  3150  3152    1
  3132  3150  3165    1
  3133  3153  3154    1
  3134  3153  3155    1
  3135  3153  3156    1
  3136  3157  3158    1
  3137  3157  3159    1
  3138  3157  3160    1
  3139  3161  3162    1
  3140  3161  3163    1
  3141  3161  3164    1
  3142  3165  3166    1
  3143  3165  3167    1
  3144  3165  3171    1
  3145  3168  3169    2
  3146  3168  3170    1
  3147  3168  3171    1
  3148  3168  3172    1
  3149  3172  3173    1
  3150  3173  3174    1
  3151  3173  3175    1
  3152  3173  3176    1
  3153  3176  3177    1
  3154  3176  3178    1
  3155  3176  3184    1
  3156  3178  3179    1
  3157  3179  3180    2
  3158  3179  3181    1
  3159  3181  3182    1
  3160  3181  3183    1
  3161  3181  3193    1
  3162  3184  3185    1
  3163  3184  3186    1
  3164  3184  3187    1
  3165  3187  3188    1
  3166  3188  3189    2
  3167  3188  3190    1
  3168  3190  3191    1
  3169  3190  3192    1
  3170  3190  3240    1
  3171  3193  3194    1
  3172  3193  3195    1
  3173  3193  3196    1
  3174  3196  3197    1
  3175  3196  3198    1
  3176  3196  3199    1
  3177  3199  3200    1
  3178  3199  3201    1
  3179  3199  3202    1
  3180  3202  3203    1
  3181  3202  3204    1
  3182  3202  3205    1
  3183  3205  3206    1
  3184  3205  3207    1
  3185  3205  3208    1
  3186  3208  3209    1
  3187  3208  3210    1
  3188  3208  3211    1
  3189  3211  3212    1
  3190  3211  3213    2
  3191  3213  3214    1
  3192  3213  3215    1
  3193  3215  3216    1
  3194  3215  3217    1
  3195  3215  3218    1
  3196  3218  3219    1
  3197  3218  3220    1
  3198  3218  3221    1
  3199  3221  3222    1
  3200  3221  3223    1
  3201  3221  3224    1
  3202  3224  3225    1
  3203  3224  3226    1
  3204  3224  3227    1
  3205  3227  3228    1
  3206  3227  3229    1
  3207  3227  3230    1
  3208  3230  3231    1
  3209  3230  3232    1
  3210  3230  3233    1
  3211  3233  3234    1
  3212  3233  3235    1
  3213  3233  3236    1
  3214  3236  3237    1
  3215  3236  3238    1
  3216  3236  3239    1
  3217  3240  3241    1
  3218  3240  3242    1
  3219  3240  3243    1
  3220  3243  3244    1
  3221  3243  3245    1
  3222  3243  3246    1
  3223  3246  3247    1
  3224  3246  3248    1
  3225  3246  3249    1
  3226  3249  3250    1
  3227  3249  3251    1
  3228  3249  3252    1
  3229  3252  3253    1
  3230  3252  3254    1
  3231  3252  3255    1
  3232  3255  3256    1
  3233  3255  3257    1
  3234  3255  3258    1
  3235  3258  3259    1
  3236  3258  3260    1
  3237  3258  3261    1
  3238  3261  3262    1
  3239  3261  3263    1
  3240  3261  3264    1
  3241  3264  3265    1
  3242  3264  3266    1
  3243  3264  3267    1
  3244  3267  3268    1
  3245  3267  3269    1
  3246  3267  3270    1
  3247  3270  3271    1
  3248  3270  3272    1
  3249  3270  3273    1
  3250  3273  3274    1
  3251  3273  3275    1
  3252  3273  3276    1
  3253  3276  3277    1
  3254  3276  3278    1
  3255  3276  3279    1
  3256  3279  3280    1
  3257  3279  3281    1
  3258  3279  3282    1
  3259  3283  3284    1
  3260  3283  3287    1
  3261  3283  3291    1
  3262  3283  3295    1
  3263  3284  3285    1
  3264  3284  3286    1
  3265  3284  3299    1
  3266  3287  3288    1
  3267  3287  3289    1
  3268  3287  3290    1
  3269  3291  3292    1
  3270  3291  3293    1
  3271  3291  3294    1
  3272  3295  3296    1
  3273  3295  3297    1
  3274  3295  3298    1
  3275  3299  3300    1
  3276  3299  3301    1
  3277  3299  3305    1
  3278  3302  3303    2
  3279  3302  3304    1
  3280  3302  3305    1
  3281  3302  3306    1
  3282  3306  3307    1
  3283  3307  3308    1
  3284  3307  3309    1
  3285  3307  3310    1
  3286  3310  3311    1
  3287  3310  3312    1
  3288  3310  3318    1
  3289  3312  3313    1
  3290  3313  3314    2
  3291  3313  3315    1
  3292  3315  3316    1
  3293  3315  3317    1
  3294  3315  3327    1
  3295  3318  3319    1
  3296  3318  3320    1
  3297  3318  3321    1
  3298  3321  3322    1
  3299  3322  3323    2
  3300  3322  3324    1
  3301  3324  3325    1
  3302  3324  3326    1
  3303  3324  3374    1
  3304  3327  3328    1
  3305  3327  3329    1
  3306  3327  3330    1
  3307  3330  3331    1
  3308  3330  3332    1
  3309  3330  3333    1
  3310  3333  3334    1
  3311  3333  3335    1
  3312  3333  3336    1
  3313  3336  3337    1
  3314  3336  3338    1
  3315  3336  3339    1
  3316  3339  3340    1
  3317  3339  3341    1
  3318  3339  3342    1
  3319  3342  3343    1
  3320  3342  3344    1
  3321  3342  3345    1
  3322  3345  3346    1
  3323  3345  3347    2
  3324  3347  3348    1
  3325  3347  3349    1
  3326  3349  3350    1
  3327  3349  3351    1
  3328  3349  3352    1
  3329  3352  3353    1
  3330  3352  3354    1
  3331  3352  3355    1
  3332  3355  3356    1
  3333  3355  3357    1
  3334  3355  3358    1
  3335  3358  3359    1
  3336  3358  3360    1
  3337  3358  3361    1
  3338  3361  3362    1
  3339  3361  3363    1
  3340  3361  3364    1
  3341  3364  3365    1
  3342  3364  3366    1
  3343  3364  3367    1
  3344  3367  3368    1
  3345  3367  3369    1
  3346  3367  3370    1
  3347  3370  3371    1
  3348  3370  3372    1
  3349  3370  3373    1
  3350  3374  3375    1
  3351  3374  3376    1
  3352  3374  3377    1
  3353  3377  3378    1
  3354  3377  3379    1
  3355  3377  3380    1
  3356  3380  3381    1
  3357  3380  3382    1
  3358  3380  3383    1
  3359  3383  3384    1
  3360  3383  3385    1
  3361  3383  3386    1
  3362  3386  3387    1
  3363  3386  3388    1
  3364  3386  3389    1
  3365  3389  3390    1
  3366  3389  3391    1
  3367  3389  3392    1
  3368  3392  3393    1
  3369  3392  3394    1
  3370  3392  3395    1
  3371  3395  3396    1
  3372  3395  3397    1
  3373  3395  3398    1
  3374  3398  3399    1
  3375  3398  3400    1
  3376  3398  3401    1
  3377  3401  3402    1
  3378  3401  3403    1
  3379  3401  3404    1
  3380  3404  3405    1
  3381  3404  3406    1
  3382  3404  3407    1
  3383  3407  3408    1
  3384  3407  3409    1
  3385  3407  3410    1
  3386  3410  3411    1
  3387  3410  3412    1
  3388  3410  3413    1
  3389  3413  3414    1
  3390  3413  3415    1
  3391  3413  3416    1
  3392  3417  3418    1
  3393  3417  3421    1
  3394  3417  3425    1
  3395  3417  3429    1
  3396  3418  3419    1
  3397  3418  3420    1
  3398  3418  3433    1
  3399  3421  3422    1
  3400  3421  3423    1
  3401  3421  3424    1
  3402  3425  3426    1
  3403  3425  3427    1
  3404  3425  3428    1
  3405  3429  3430    1
  3406  3429  3431    1
  3407  3429  3432    1
  3408  3433  3434    1
  3409  3433  3435    1
  3410  3433  3439    1
  3411  3436  3437    2
  3412  3436  3438    1
  3413  3436  3439    1
  3414  3436  3440    1
  3415  3440  3441    1
  3416  3441  3442    1
  3417  3441  3443    1
  3418  3441  3444    1
  3419  3444  3445    1
  3420  3444  3446    1
  3421  3444  3452    1
  3422  3446  3447    1
  3423  3447  3448    2
  3424  3447  3449    1
  3425  3449  3450    1
  3426  3449  3451    1
  3427  3449  3461    1
  3428  3452  3453    1
  3429  3452  3454    1
  3430  3452  3455    1
  3431  3455  3456    1
  3432  3456  3457    2
  3433  3456  3458    1
  3434  3458  3459    1
  3435  3458  3460    1
  3436  3458  3508    1
  3437  3461  3462    1
  3438  3461  3463    1
  3439  3461  3464    1
  3440  3464  3465    1
  3441  3464  3466    1
  3442  3464  3467    1
  3443  3467  3468    1
  3444  3467  3469    1
  3445  3467  3470    1
  3446  3470  3471    1
  3447  3470  3472    1
  3448  3470  3473    1
  3449  3473  3474    1
  3450  3473  3475    1
  3451  3473  3476    1
  3452  3476  3477    1
  3453  3476  3478    1
  3454  3476  3479    1
  3455  3479  3480    1
  3456  3479  3481    2
  3457  3481  3482    1
  3458  3481  3483    1
  3459  3483  3484    1
  3460  3483  3485    1
  3461  3483  3486    1
  3462  3486  3487    1
  3463  3486  3488    1
  3464  3486  3489    1
  3465  3489  3490    1
  3466  3489  3491    1
  3467  3489  3492    1
  3468  3492  3493    1
  3469  3492  3494    1
  3470  3492  3495    1
  3471  3495  3496    1
  3472  3495  3497    1
  3473  3495  3498    1
  3474  3498  3499    1
  3475  3498  3500    1
  3476  3498  3501    1
  3477  3501  3502    1
  3478  3501  3503    1
  3479  3501  3504    1
  3480  3504  3505    1
  3481  3504  3506    1
  3482  3504  3507    1
  3483  3508  3509    1
  3484  3508  3510    1
  3485  3508  3511    1
  3486  3511  3512    1
  3487  3511  3513    1
  3488  3511  3514    1
  3489  3514  3515    1
  3490  3514  3516    1
  3491  3514  3517    1
  3492  3517  3518    1
  3493  3517  3519    1
  3494  3517  3520    1
  3495  3520  3521    1
  3496  3520  3522    1
  3497  3520  3523    1
  3498  3523  3524    1
  3499  3523  3525    1
  3500  3523  3526    1
  3501  3526  3527    1
  3502  3526  3528    1
  3503  3526  3529    1
  3504  3529  3530    1
  3505  3529  3531    1
  3506  3529  3532    1
  3507  3532  3533    1
  3508  3532  3534    1
  3509  3532  3535    1
  3510  3535  3536    1
  3511  3535  3537    1
  3512  3535  3538    1
  3513  3538  3539    1
  3514  3538  3540    1
  3515  3538  3541    1
  3516  3541  3542    1
  3517  3541  3543    1
  3518  3541  3544    1
  3519  3544  3545    1
  3520  3544  3546    1
  3521  3544  3547    1
  3522  3547  3548    1
  3523  3547  3549    1
  3524  3547  3550    1
  3525  3551  3552    1
  3526  3551  3555    1
  3527  3551  3559    1
  3528  3551  3563    1
  3529  3552  3553    1
  3530  3552  3554    1
  3531  3552  3567    1
  3532  3555  3556    1
  3533  3555  3557    1
  3534  3555  3558    1
  3535  3559  3560    1
  3536  3559  3561    1
  3537  3559  3562    1
  3538  3563  3564    1
  3539  3563  3565    1
  3540  3563  3566    1
  3541  3567  3568    1
  3542  3567  3569    1
  3543  3567  3573    1
  3544  3570  3571    2
  3545  3570  3572    1
  3546  3570  3573    1
  3547  3570  3574    1
  3548  3574  3575    1
  3549  3575  3576    1
  3550  3575  3577    1
  3551  3575  3578    1
  3552  3578  3579    1
  3553  3578  3580    1
  3554  3578  3586    1
  3555  3580  3581    1
  3556  3581  3582    2
  3557  3581  3583    1
  3558  3583  3584    1
  3559  3583  3585    1
  3560  3583  3595    1
  3561  3586  3587    1
  3562  3586  3588    1
  3563  3586  3589    1
  3564  3589  3590    1
  3565  3590  3591    2
  3566  3590  3592    1
  3567  3592  3593    1
  3568  3592  3594    1
  3569  3592  3642    1
  3570  3595  3596    1
  3571  3595  3597    1
  3572  3595  3598    1
  3573  3598  3599    1
  3574  3598  3600    1
  3575  3598  3601    1
  3576  3601  3602    1
  3577  3601  3603    1
  3578  3601  3604    1
  3579  3604  3605    1
  3580  3604  3606    1
  3581  3604  3607    1
  3582  3607  3608    1
  3583  3607  3609    1
  3584  3607  3610    1
  3585  3610  3611    1
  3586  3610  3612    1
  3587  3610  3613    1
  3588  3613  3614    1
  3589  3613  3615    2
  3590  3615  3616    1
  3591  3615  3617    1
  3592  3617  3618    1
  3593  3617  3619    1
  3594  3617  3620    1
  3595  3620  3621    1
  3596  3620  3622    1
  3597  3620  3623    1
  3598  3623  3624    1
  3599  3623  3625    1
  3600  3623  3626    1
  3601  3626  3627    1
  3602  3626  3628    1
  3603  3626  3629    1
  3604  3629  3630    1
  3605  3629  3631    1
  3606  3629  3632    1
  3607  3632  3633    1
  3608  3632  3634    1
  3609  3632  3635    1
  3610  3635  3636    1
  3611  3635  3637    1
  3612  3635  3638    1
  3613  3638  3639    1
  3614  3638  3640    1
  3615  3638  3641    1
  3616  3642  3643    1
  3617  3642  3644    1
  3618  3642  3645    1
  3619  3645  3646    1
  3620  3645  3647    1
  3621  3645  3648    1
  3622  3648  3649    1
  3623  3648  3650    1
  3624  3648  3651    1
  3625  3651  3652    1
  3626  3651  3653    1
  3627  3651  3654    1
  3628  3654  3655    1
  3629  3654  3656    1
  3630  3654  3657    1
  3631  3657  3658    1
  3632  3657  3659    1
  3633  3657  3660    1
  3634  3660  3661    1
  3635  3660  3662    1
  3636  3660  3663    1
  3637  3663  3664    1
  3638  3663  3665    1
  3639  3663  3666    1
  3640  3666  3667    1
  3641  3666  3668    1
  3642  3666  3669    1
  3643  3669  3670    1
  3644  3669  3671    1
  3645  3669  3672    1
  3646  3672  3673    1
  3647  3672  3674    1
  3648  3672  3675    1
  3649  3675  3676    1
  3650  3675  3677    1
  3651  3675  3678    1
  3652  3678  3679    1
  3653  3678  3680    1
  3654  3678  3681    1
  3655  3681  3682    1
  3656  3681  3683    1
  3657  3681  3684    1
  3658  3685  3686    1
  3659  3685  3689    1
  3660  3685  3693    1
  3661  3685  3697    1
  3662  3686  3687    1
  3663  3686  3688    1
  3664  3686  3701    1
  3665  3689  3690    1
  3666  3689  3691    1
  3667  3689  3692    1
  3668  3693  3694    1
  3669  3693  3695    1
  3670  3693  3696    1
  3671  3697  3698    1
  3672  3697  3699    1
  3673  3697  3700    1
  3674  3701  3702    1
  3675  3701  3703    1
  3676  3701  3707    1
  3677  3704  3705    2
  3678  3704  3706    1
  3679  3704  3707    1
  3680  3704  3708    1
  3681  3708  3709    1
  3682  3709  3710    1
  3683  3709  3711    1
  3684  3709  3712    1
  3685  3712  3713    1
  3686  3712  3714    1
  3687  3712  3720    1
  3688  3714  3715    1
  3689  3715  3716    2
  3690  3715  3717    1
  3691  3717  3718    1
  3692  3717  3719    1
  3693  3717  3729    1
  3694  3720  3721    1
  3695  3720  3722    1
  3696  3720  3723    1
  3697  3723  3724    1
  3698  3724  3725    2
  3699  3724  3726    1
  3700  3726  3727    1
  3701  3726  3728    1
  3702  3726  3776    1
  3703  3729  3730    1
  3704  3729  3731    1
  3705  3729  3732    1
  3706  3732  3733    1
  3707  3732  3734    1
  3708  3732  3735    1
  3709  3735  3736    1
  3710  3735  3737    1
  3711  3735  3738    1
  3712  3738  3739    1
  3713  3738  3740    1
  3714  3738  3741    1
  3715  3741  3742    1
  3716  3741  3743    1
  3717  3741  3744    1
  3718  3744  3745    1
  3719  3744  3746    1
  3720  3744  3747    1
  3721  3747  3748    1
  3722  3747  3749    2
  3723  3749  3750    1
  3724  3749  3751    1
  3725  3751  3752    1
  3726  3751  3753    1
  3727  3751  3754    1
  3728  3754  3755    1
  3729  3754  3756    1
  3730  3754  3757    1
  3731  3757  3758    1
  3732  3757  3759    1
  3733  3757  3760    1
  3734  3760  3761    1
  3735  3760  3762    1
  3736  3760  3763    1
  3737  3763  3764    1
  3738  3763  3765    1
  3739  3763  3766    1
  3740  3766  3767    1
  3741  3766  3768    1
  3742  3766  3769    1
  3743  3769  3770    1
  3744  3769  3771    1
  3745  3769  3772    1
  3746  3772  3773    1
  3747  3772  3774    1
  3748  3772  3775    1
  3749  3776  3777    1
  3750  3776  3778    1
  3751  3776  3779    1
  3752  3779  3780    1
  3753  3779  3781    1
  3754  3779  3782    1
  3755  3782  3783    1
  3756  3782  3784    1
  3757  3782  3785    1
  3758  3785  3786    1
  3759  3785  3787    1
  3760  3785  3788    1
  3761  3788  3789    1
  3762  3788  3790    1
  3763  3788  3791    1
  3764  3791  3792    1
  3765  3791  3793    1
  3766  3791  3794    1
  3767  3794  3795    1
  3768  3794  3796    1
  3769  3794  3797    1
  3770  3797  3798    1
  3771  3797  3799    1
  3772  3797  3800    1
  3773  3800  3801    1
  3774  3800  3802    1
  3775  3800  3803    1
  3776  3803  3804    1
  3777  3803  3805    1
  3778  3803  3806    1
  3779  3806  3807    1
  3780  3806  3808    1
  3781  3806  3809    1
  3782  3809  3810    1
  3783  3809  3811    1
  3784  3809  3812    1
  3785  3812  3813    1
  3786  3812  3814    1
  3787  3812  3815    1
  3788  3815  3816    1
  3789  3815  3817    1
  3790  3815  3818    1
  3791  3819  3820    1
  3792  3819  3823    1
  3793  3819  3827    1
  3794  3819  3831    1
  3795  3820  3821    1
  3796  3820  3822    1
  3797  3820  3835    1
  3798  3823  3824    1
  3799  3823  3825    1
  3800  3823  3826    1
  3801  3827  3828    1
  3802  3827  3829    1
  3803  3827  3830    1
  3804  3831  3832    1
  3805  3831  3833    1
  3806  3831  3834    1
  3807  3835  3836    1
  3808  3835  3837    1
  3809  3835  3841    1
  3810  3838  3839    2
  3811  3838  3840    1
  3812  3838  3841    1
  3813  3838  3842    1
  3814  3842  3843    1
  3815  3843  3844    1
  3816  3843  3845    1
  3817  3843  3846    1
  3818  3846  3847    1
  3819  3846  3848    1
  3820  3846  3854    1
  3821  3848  3849    1
  3822  3849  3850    2
  3823  3849  3851    1
  3824  3851  3852    1
  3825  3851  3853    1
  3826  3851  3863    1
  3827  3854  3855    1
  3828  3854  3856    1
  3829  3854  3857    1
  3830  3857  3858    1
  3831  3858  3859    2
  3832  3858  3860    1
  3833  3860  3861    1
  3834  3860  3862    1
  3835  3860  3910    1
  3836  3863  3864    1
  3837  3863  3865    1
  3838  3863  3866    1
  3839  3866  3867    1
  3840  3866  3868    1
  3841  3866  3869    1
  3842  3869  3870    1
  3843  3869  3871    1
  3844  3869  3872    1
  3845  3872  3873    1
  3846  3872  3874    1
  3847  3872  3875    1
  3848  3875  3876    1
  3849  3875  3877    1
  3850  3875  3878    1
  3851  3878  3879    1
  3852  3878  3880    1
  3853  3878  3881    1
  3854  3881  3882    1
  3855  3881  3883    2
  3856  3883  3884    1
  3857  3883  3885    1
  3858  3885  3886    1
  3859  3885  3887    1
  3860  3885  3888    1
  3861  3888  3889    1
  3862  3888  3890    1
  3863  3888  3891    1
  3864  3891  3892    1
  3865  3891  3893    1
  3866  3891  3894    1
  3867  3894  3895    1
  3868  3894  3896    1
  3869  3894  3897    1
  3870  3897  3898    1
  3871  3897  3899    1
  3872  3897  3900    1
  3873  3900  3901    1
  3874  3900  3902    1
  3875  3900  3903    1
  3876  3903  3904    1
  3877  3903  3905    1
  3878  3903  3906    1
  3879  3906  3907    1
  3880  3906  3908    1
  3881  3906  3909    1
  3882  3910  3911    1
  3883  3910  3912    1
  3884  3910  3913    1
  3885  3913  3914    1
  3886  3913  3915    1
  3887  3913  3916    1
  3888  3916  3917    1
  3889  3916  3918    1
  3890  3916  3919    1
  3891  3919  3920    1
  3892  3919  3921    1
  3893  3919  3922    1
  3894  3922  3923    1
  3895  3922  3924    1
  3896  3922  3925    1
  3897  3925  3926    1
  3898  3925  3927    1
  3899  3925  3928    1
  3900  3928  3929    1
  3901  3928  3930    1
  3902  3928  3931    1
  3903  3931  3932    1
  3904  3931  3933    1
  3905  3931  3934    1
  3906  3934  3935    1
  3907  3934  3936    1
  3908  3934  3937    1
  3909  3937  3938    1
  3910  3937  3939    1
  3911  3937  3940    1
  3912  3940  3941    1
  3913  3940  3942    1
  3914  3940  3943    1
  3915  3943  3944    1
  3916  3943  3945    1
  3917  3943  3946    1
  3918  3946  3947    1
  3919  3946  3948    1
  3920  3946  3949    1
  3921  3949  3950    1
  3922  3949  3951    1
  3923  3949  3952    1
  3924  3953  3954    1
  3925  3953  3957    1
  3926  3953  3961    1
  3927  3953  3965    1
  3928  3954  3955    1
  3929  3954  3956    1
  3930  3954  3969    1
  3931  3957  3958    1
  3932  3957  3959    1
  3933  3957  3960    1
  3934  3961  3962    1
  3935  3961  3963    1
  3936  3961  3964    1
  3937  3965  3966    1
  3938  3965  3967    1
  3939  3965  3968    1
  3940  3969  3970    1
  3941  3969  3971    1
  3942  3969  3975    1
  3943  3972  3973    2
  3944  3972  3974    1
  3945  3972  3975    1
  3946  3972  3976    1
  3947  3976  3977    1
  3948  3977  3978    1
  3949  3977  3979    1
  3950  3977  3980    1
  3951  3980  3981    1
  3952  3980  3982    1
  3953  3980  3988    1
  3954  3982  3983    1
  3955  3983  3984    2
  3956  3983  3985    1
  3957  3985  3986    1
  3958  3985  3987    1
  3959  3985  3997    1
  3960  3988  3989    1
  3961  3988  3990    1
  3962  3988  3991    1
  3963  3991  3992    1
  3964  3992  3993    2
  3965  3992  3994    1
  3966  3994  3995    1
  3967  3994  3996    1
  3968  3994  4044    1
  3969  3997  3998    1
  3970  3997  3999    1
  3971  3997  4000    1
  3972  4000  4001    1
  3973  4000  4002    1
  3974  4000  4003    1
  3975  4003  4004    1
  3976  4003  4005    1
  3977  4003  4006    1
  3978  4006  4007    1
  3979  4006  4008    1
  3980  4006  4009    1
  3981  4009  4010    1
  3982  4009  4011    1
  3983  4009  4012    1
  3984  4012  4013    1
  3985  4012  4014    1
  3986  4012  4015    1
  3987  4015  4016    1
  3988  4015  4017    2
  3989  4017  4018    1
  3990  4017  4019    1
  3991  4019  4020    1
  3992  4019  4021    1
  3993  4019  4022    1
  3994  4022  4023    1
  3995  4022  4024    1
  3996  4022  4025    1
  3997  4025  4026    1
  3998  4025  4027    1
  3999  4025  4028    1
  4000  4028  4029    1
  4001  4028  4030    1
  4002  4028  4031    1
  4003  4031  4032    1
  4004  4031  4033    1
  4005  4031  4034    1
  4006  4034  4035    1
  4007  4034  4036    1
  4008  4034  4037    1
  4009  4037  4038    1
  4010  4037  4039    1
  4011  4037  4040    1
  4012  4040  4041    1
  4013  4040  4042    1
  4014  4040  4043    1
  4015  4044  4045    1
  4016  4044  4046    1
  4017  4044  4047    1
  4018  4047  4048    1
  4019  4047  4049    1
  4020  4047  4050    1
  4021  4050  4051    1
  4022  4050  4052    1
  4023  4050  4053    1
  4024  4053  4054    1
  4025  4053  4055    1
  4026  4053  4056    1
  4027  4056  4057    1
  4028  4056  4058    1
  4029  4056  4059    1
  4030  4059  4060    1
  4031  4059  4061    1
  4032  4059  4062    1
  4033  4062  4063    1
  4034  4062  4064    1
  4035  4062  4065    1
  4036  4065  4066    1
  4037  4065  4067    1
  4038  4065  4068    1
  4039  4068  4069    1
  4040  4068  4070    1
  4041  4068  4071    1
  4042  4071  4072    1
  4043  4071  4073    1
  4044  4071  4074    1
  4045  4074  4075    1
  4046  4074  4076    1
  4047  4074  4077    1
  4048  4077  4078    1
  4049  4077  4079    1
  4050  4077  4080    1
  4051  4080  4081    1
  4052  4080  4082    1
  4053  4080  4083    1
  4054  4083  4084    1
  4055  4083  4085    1
  4056  4083  4086    1
  4057  4087  4088    1
  4058  4087  4091    1
  4059  4087  4095    1
  4060  4087  4099    1
  4061  4088  4089    1
  4062  4088  4090    1
  4063  4088  4103    1
  4064  4091  4092    1
  4065  4091  4093    1
  4066  4091  4094    1
  4067  4095  4096    1
  4068  4095  4097    1
  4069  4095  4098    1
  4070  4099  4100    1
  4071  4099  4101    1
  4072  4099  4102    1
  4073  4103  4104    1
  4074  4103  4105    1
  4075  4103  4109    1
  4076  4106  4107    2
  4077  4106  4108    1
  4078  4106  4109    1
  4079  4106  4110    1
  4080  4110  4111    1
  4081  4111  4112    1
  4082  4111  4113    1
  4083  4111  4114    1
  4084  4114  4115    1
  4085  4114  4116    1
  4086  4114  4122    1
  4087  4116  4117    1
  4088  4117  4118    2
  4089  4117  4119    1
  4090  4119  4120    1
  4091  4119  4121    1
  4092  4119  4131    1
  4093  4122  4123    1
  4094  4122  4124    1
  4095  4122  4125    1
  4096  4125  4126    1
  4097  4126  4127    2
  4098  4126  4128    1
  4099  4128  4129    1
  4100  4128  4130    1
  4101  4128  4178    1
  4102  4131  4132    1
  4103  4131  4133    1
  4104  4131  4134    1
  4105  4134  4135    1
  4106  4134  4136    1
  4107  4134  4137    1
  4108  4137  4138    1
  4109  4137  4139    1
  4110  4137  4140    1
  4111  4140  4141    1
  4112  4140  4142    1
  4113  4140  4143    1
  4114  4143  4144    1
  4115  4143  4145    1
  4116  4143  4146    1
  4117  4146  4147    1
  4118  4146  4148    1
  4119  4146  4149    1
  4120  4149  4150    1
  4121  4149  4151    2
  4122  4151  4152    1
  4123  4151  4153    1
  4124  4153  4154    1
  4125  4153  4155    1
  4126  4153  4156    1
  4127  4156  4157    1
  4128  4156  4158    1
  4129  4156  4159    1
  4130  4159  4160    1
  4131  4159  4161    1
  4132  4159  4162    1
  4133  4162  4163    1
  4134  4162  4164    1
  4135  4162  4165    1
  4136  4165  4166    1
  4137  4165  4167    1
  4138  4165  4168    1
  4139  4168  4169    1
  4140  4168  4170    1
  4141  4168  4171    1
  4142  4171  4172    1
  4143  4171  4173    1
  4144  4171  4174    1
  4145  4174  4175    1
  4146  4174  4176    1
  4147  4174  4177    1
  4148  4178  4179    1
  4149  4178  4180    1
  4150  4178  4181    1
  4151  4181  4182    1
  4152  4181  4183    1
  4153  4181  4184    1
  4154  4184  4185    1
  4155  4184  4186    1
  4156  4184  4187    1
  4157  4187  4188    1
  4158  4187  4189    1
  4159  4187  4190    1
  4160  4190  4191    1
  4161  4190  4192    1
  4162  4190  4193    1
  4163  4193  4194    1
  4164  4193  4195    1
  4165  4193  4196    1
  4166  4196  4197    1
  4167  4196  4198    1
  4168  4196  4199    1
  4169  4199  4200    1
  4170  4199  4201    1
  4171  4199  4202    1
  4172  4202  4203    1
  4173  4202  4204    1
  4174  4202  4205    1
  4175  4205  4206    1
  4176  4205  4207    1
  4177  4205  4208    1
  4178  4208  4209    1
  4179  4208  4210    1
  4180  4208  4211    1
  4181  4211  4212    1
  4182  4211  4213    1
  4183  4211  4214    1
  4184  4214  4215    1
  4185  4214  4216    1
  4186  4214  4217    1
  4187  4217  4218    1
  4188  4217  4219    1
  4189  4217  4220    1
  4190  4221  4222    1
  4191  4221  4225    1
  4192  4221  4229    1
  4193  4221  4233    1
  4194  4222  4223    1
  4195  4222  4224    1
  4196  4222  4237    1
  4197  4225  4226    1
  4198  4225  4227    1
  4199  4225  4228    1
  4200  4229  4230    1
  4201  4229  4231    1
  4202  4229  4232    1
  4203  4233  4234    1
  4204  4233  4235    1
  4205  4233  4236    1
  4206  4237  4238    1
  4207  4237  4239    1
  4208  4237  4243    1
  4209  4240  4241    2
  4210  4240  4242    1
  4211  4240  4243    1
  4212  4240  4244    1
  4213  4244  4245    1
  4214  4245  4246    1
  4215  4245  4247    1
  4216  4245  4248    1
  4217  4248  4249    1
  4218  4248  4250    1
  4219  4248  4256    1
  4220  4250  4251    1
  4221  4251  4252    2
  4222  4251  4253    1
  4223  4253  4254    1
  4224  4253  4255    1
  4225  4253  4265    1
  4226  4256  4257    1
  4227  4256  4258    1
  4228  4256  4259    1
  4229  4259  4260    1
  4230  4260  4261    2
  4231  4260  4262    1
  4232  4262  4263    1
  4233  4262  4264    1
  4234  4262  4312    1
  4235  4265  4266    1
  4236  4265  4267    1
  4237  4265  4268    1
  4238  4268  4269    1
  4239  4268  4270    1
  4240  4268  4271    1
  4241  4271  4272    1
  4242  4271  4273    1
  4243  4271  4274    1
  4244  4274  4275    1
  4245  4274  4276    1
  4246  4274  4277    1
  4247  4277  4278    1
  4248  4277  4279    1
  4249  4277  4280    1
  4250  4280  4281    1
  4251  4280  4282    1
  4252  4280  4283    1
  4253  4283  4284    1
  4254  4283  4285    2
  4255  4285  4286    1
  4256  4285  4287    1
  4257  4287  4288    1
  4258  4287  4289    1
  4259  4287  4290    1
  4260  4290  4291    1
  4261  4290  4292    1
  4262  4290  4293    1
  4263  4293  4294    1
  4264  4293  4295    1
  4265  4293  4296    1
  4266  4296  4297    1
  4267  4296  4298    1
  4268  4296  4299    1
  4269  4299  4300    1
  4270  4299  4301    1
  4271  4299  4302    1
  4272  4302  4303    1
  4273  4302  4304    1
  4274  4302  4305    1
  4275  4305  4306    1
  4276  4305  4307    1
  4277  4305  4308    1
  4278  4308  4309    1
  4279  4308  4310    1
  4280  4308  4311    1
  4281  4312  4313    1
  4282  4312  4314    1
  4283  4312  4315    1
  4284  4315  4316    1
  4285  4315  4317    1
  4286  4315  4318    1
  4287  4318  4319    1
  4288  4318  4320    1
  4289  4318  4321    1
  4290  4321  4322    1
  4291  4321  4323    1
  4292  4321  4324    1
  4293  4324  4325    1
  4294  4324  4326    1
  4295  4324  4327    1
  4296  4327  4328    1
  4297  4327  4329    1
  4298  4327  4330    1
  4299  4330  4331    1
  4300  4330  4332    1
  4301  4330  4333    1
  4302  4333  4334    1
  4303  4333  4335    1
  4304  4333  4336    1
  4305  4336  4337    1
  4306  4336  4338    1
  4307  4336  4339    1
  4308  4339  4340    1
  4309  4339  4341    1
  4310  4339  4342    1
  4311  4342  4343    1
  4312  4342  4344    1
  4313  4342  4345    1
  4314  4345  4346    1
  4315  4345  4347    1
  4316  4345  4348    1
  4317  4348  4349    1
  4318  4348  4350    1
  4319  4348  4351    1
  4320  4351  4352    1
  4321  4351  4353    1
  4322  4351  4354    1
  4323  4355  4356    1
  4324  4355  4359    1
  4325  4355  4363    1
  4326  4355  4367    1
  4327  4356  4357    1
  4328  4356  4358    1
  4329  4356  4371    1
  4330  4359  4360    1
  4331  4359  4361    1
  4332  4359  4362    1
  4333  4363  4364    1
  4334  4363  4365    1
  4335  4363  4366    1
  4336  4367  4368    1
  4337  4367  4369    1
  4338  4367  4370    1
  4339  4371  4372    1
  4340  4371  4373    1
  4341  4371  4377    1
  4342  4374  4375    2
  4343  4374  4376    1
  4344  4374  4377    1
  4345  4374  4378    1
  4346  4378  4379    1
  4347  4379  4380    1
  4348  4379  4381    1
  4349  4379  4382    1
  4350  4382  4383    1
  4351  4382  4384    1
  4352  4382  4390    1
  4353  4384  4385    1
  4354  4385  4386    2
  4355  4385  4387    1
  4356  4387  4388    1
  4357  4387  4389    1
  4358  4387  4399    1
  4359  4390  4391    1
  4360  4390  4392    1
  4361  4390  4393    1
  4362  4393  4394    1
  4363  4394  4395    2
  4364  4394  4396    1
  4365  4396  4397    1
  4366  4396  4398    1
  4367  4396  4446    1
  4368  4399  4400    1
  4369  4399  4401    1
  4370  4399  4402    1
  4371  4402  4403    1
  4372  4402  4404    1
  4373  4402  4405    1
  4374  4405  4406    1
  4375  4405  4407    1
  4376  4405  4408    1
  4377  4408  4409    1
  4378  4408  4410    1
  4379  4408  4411    1
  4380  4411  4412    1
  4381  4411  4413    1
  4382  4411  4414    1
  4383  4414  4415    1
  4384  4414  4416    1
  4385  4414  4417    1
  4386  4417  4418    1
  4387  4417  4419    2
  4388  4419  4420    1
  4389  4419  4421    1
  4390  4421  4422    1
  4391  4421  4423    1
  4392  4421  4424    1
  4393  4424  4425    1
  4394  4424  4426    1
  4395  4424  4427    1
  4396  4427  4428    1
  4397  4427  4429    1
  4398  4427  4430    1
  4399  4430  4431    1
  4400  4430  4432    1
  4401  4430  4433    1
  4402  4433  4434    1
  4403  4433  4435    1
  4404  4433  4436    1
  4405  4436  4437    1
  4406  4436  4438    1
  4407  4436  4439    1
  4408  4439  4440    1
  4409  4439  4441    1
  4410  4439  4442    1
  4411  4442  4443    1
  4412  4442  4444    1
  4413  4442  4445    1
  4414  4446  4447    1
  4415  4446  4448    1
  4416  4446  4449    1
  4417  4449  4450    1
  4418  4449  4451    1
  4419  4449  4452    1
  4420  4452  4453    1
  4421  4452  4454    1
  4422  4452  4455    1
  4423  4455  4456    1
  4424  4455  4457    1
  4425  4455  4458    1
  4426  4458  4459    1
  4427  4458  4460    1
  4428  4458  4461    1
  4429  4461  4462    1
  4430  4461  4463    1
  4431  4461  4464    1
  4432  4464  4465    1
  4433  4464  4466    1
  4434  4464  4467    1
  4435  4467  4468    1
  4436  4467  4469    1
  4437  4467  4470    1
  4438  4470  4471    1
  4439  4470  4472    1
  4440  4470  4473    1
  4441  4473  4474    1
  4442  4473  4475    1
  4443  4473  4476    1
  4444  4476  4477    1
  4445  4476  4478    1
  4446  4476  4479    1
  4447  4479  4480    1
  4448  4479  4481    1
  4449  4479  4482    1
  4450  4482  4483    1
  4451  4482  4484    1
  4452  4482  4485    1
  4453  4485  4486    1
  4454  4485  4487    1
  4455  4485  4488    1
  4456  4489  4490    1
  4457  4489  4493    1
  4458  4489  4497    1
  4459  4489  4501    1
  4460  4490  4491    1
  4461  4490  4492    1
  4462  4490  4505    1
  4463  4493  4494    1
  4464  4493  4495    1
  4465  4493  4496    1
  4466  4497  4498    1
  4467  4497  4499    1
  4468  4497  4500    1
  4469  4501  4502    1
  4470  4501  4503    1
  4471  4501  4504    1
  4472  4505  4506    1
  4473  4505  4507    1
  4474  4505  4511    1
  4475  4508  4509    2
  4476  4508  4510    1
  4477  4508  4511    1
  4478  4508  4512    1
  4479  4512  4513    1
  4480  4513  4514    1
  4481  4513  4515    1
  4482  4513  4516    1
  4483  4516  4517    1
  4484  4516  4518    1
  4485  4516  4524    1
  4486  4518  4519    1
  4487  4519  4520    2
  4488  4519  4521    1
  4489  4521  4522    1
  4490  4521  4523    1
  4491  4521  4533    1
  4492  4524  4525    1
  4493  4524  4526    1
  4494  4524  4527    1
  4495  4527  4528    1
  4496  4528  4529    2
  4497  4528  4530    1
  4498  4530  4531    1
  4499  4530  4532    1
  4500  4530  4580    1
  4501  4533  4534    1
  4502  4533  4535    1
  4503  4533  4536    1
  4504  4536  4537    1
  4505  4536  4538    1
  4506  4536  4539    1
  4507  4539  4540    1
  4508  4539  4541    1
  4509  4539  4542    1
  4510  4542  4543    1
  4511  4542  4544    1
  4512  4542  4545    1
  4513  4545  4546    1
  4514  4545  4547    1
  4515  4545  4548    1
  4516  4548  4549    1
  4517  4548  4550    1
  4518  4548  4551    1
  4519  4551  4552    1
  4520  4551  4553    2
  4521  4553  4554    1
  4522  4553  4555    1
  4523  4555  4556    1
  4524  4555  4557    1
  4525  4555  4558    1
  4526  4558  4559    1
  4527  4558  4560    1
  4528  4558  4561    1
  4529  4561  4562    1
  4530  4561  4563    1
  4531  4561  4564    1
  4532  4564  4565    1
  4533  4564  4566    1
  4534  4564  4567    1
  4535  4567  4568    1
  4536  4567  4569    1
  4537  4567  4570    1
  4538  4570  4571    1
  4539  4570  4572    1
  4540  4570  4573    1
  4541  4573  4574    1
  4542  4573  4575    1
  4543  4573  4576    1
  4544  4576  4577    1
  4545  4576  4578    1
  4546  4576  4579    1
  4547  4580  4581    1
  4548  4580  4582    1
  4549  4580  4583    1
  4550  4583  4584    1
  4551  4583  4585    1
  4552  4583  4586    1
  4553  4586  4587    1
  4554  4586  4588    1
  4555  4586  4589    1
  4556  4589  4590    1
  4557  4589  4591    1
  4558  4589  4592    1
  4559  4592  4593    1
  4560  4592  4594    1
  4561  4592  4595    1
  4562  4595  4596    1
  4563  4595  4597    1
  4564  4595  4598    1
  4565  4598  4599    1
  4566  4598  4600    1
  4567  4598  4601    1
  4568  4601  4602    1
  4569  4601  4603    1
  4570  4601  4604    1
  4571  4604  4605    1
  4572  4604  4606    1
  4573  4604  4607    1
  4574  4607  4608    1
  4575  4607  4609    1
  4576  4607  4610    1
  4577  4610  4611    1
  4578  4610  4612    1
  4579  4610  4613    1
  4580  4613  4614    1
  4581  4613  4615    1
  4582  4613  4616    1
  4583  4616  4617    1
  4584  4616  4618    1
  4585  4616  4619    1
  4586  4619  4620    1
  4587  4619  4621    1
  4588  4619  4622    1
  4589  4623  4624    1
  4590  4623  4627    1
  4591  4623  4631    1
  4592  4623  4635    1
  4593  4624  4625    1
  4594  4624  4626    1
  4595  4624  4639    1
  4596  4627  4628    1
  4597  4627  4629    1
  4598  4627  4630    1
  4599  4631  4632    1
  4600  4631  4633    1
  4601  4631  4634    1
  4602  4635  4636    1
  4603  4635  4637    1
  4604  4635  4638    1
  4605  4639  4640    1
  4606  4639  4641    1
  4607  4639  4645    1
  4608  4642  4643    2
  4609  4642  4644    1
  4610  4642  4645    1
  4611  4642  4646    1
  4612  4646  4647    1
  4613  4647  4648    1
  4614  4647  4649    1
  4615  4647  4650    1
  4616  4650  4651    1
  4617  4650  4652    1
  4618  4650  4658    1
  4619  4652  4653    1
  4620  4653  4654    2
  4621  4653  4655    1
  4622  4655  4656    1
  4623  4655  4657    1
  4624  4655  4667    1
  4625  4658  4659    1
  4626  4658  4660    1
  4627  4658  4661    1
  4628  4661  4662    1
  4629  4662  4663    2
  4630  4662  4664    1
  4631  4664  4665    1
  4632  4664  4666    1
  4633  4664  4714    1
  4634  4667  4668    1
  4635  4667  4669    1
  4636  4667  4670    1
  4637  4670  4671    1
  4638  4670  4672    1
  4639  4670  4673    1
  4640  4673  4674    1
  4641  4673  4675    1
  4642  4673  4676    1
  4643  4676  4677    1
  4644  4676  4678    1
  4645  4676  4679    1
  4646  4679  4680    1
  4647  4679  4681    1
  4648  4679  4682    1
  4649  4682  4683    1
  4650  4682  4684    1
  4651  4682  4685    1
  4652  4685  4686    1
  4653  4685  4687    2
  4654  4687  4688    1
  4655  4687  4689    1
  4656  4689  4690    1
  4657  4689  4691    1
  4658  4689  4692    1
  4659  4692  4693    1
  4660  4692  4694    1
  4661  4692  4695    1
  4662  4695  4696    1
  4663  4695  4697    1
  4664  4695  4698    1
  4665  4698  4699    1
  4666  4698  4700    1
  4667  4698  4701    1
  4668  4701  4702    1
  4669  4701  4703    1
  4670  4701  4704    1
  4671  4704  4705    1
  4672  4704  4706    1
  4673  4704  4707    1
  4674  4707  4708    1
  4675  4707  4709    1
  4676  4707  4710    1
  4677  4710  4711    1
  4678  4710  4712    1
  4679  4710  4713    1
  4680  4714  4715    1
  4681  4714  4716    1
  4682  4714  4717    1
  4683  4717  4718    1
  4684  4717  4719    1
  4685  4717  4720    1
  4686  4720  4721    1
  4687  4720  4722    1
  4688  4720  4723    1
  4689  4723  4724    1
  4690  4723  4725    1
  4691  4723  4726    1
  4692  4726  4727    1
  4693  4726  4728    1
  4694  4726  4729    1
  4695  4729  4730    1
  4696  4729  4731    1
  4697  4729  4732    1
  4698  4732  4733    1
  4699  4732  4734    1
  4700  4732  4735    1
  4701  4735  4736    1
  4702  4735  4737    1
  4703  4735  4738    1
  4704  4738  4739    1
  4705  4738  4740    1
  4706  4738  4741    1
  4707  4741  4742    1
  4708  4741  4743    1
  4709  4741  4744    1
  4710  4744  4745    1
  4711  4744  4746    1
  4712  4744  4747    1
  4713  4747  4748    1
  4714  4747  4749    1
  4715  4747  4750    1
  4716  4750  4751    1
  4717  4750  4752    1
  4718  4750  4753    1
  4719  4753  4754    1
  4720  4753  4755    1
  4721  4753  4756    1
  4722  4757  4758    1
  4723  4757  4761    1
  4724  4757  4765    1
  4725  4757  4769    1
  4726  4758  4759    1
  4727  4758  4760    1
  4728  4758  4773    1
  4729  4761  4762    1
  4730  4761  4763    1
  4731  4761  4764    1
  4732  4765  4766    1
  4733  4765  4767    1
  4734  4765  4768    1
  4735  4769  4770    1
  4736  4769  4771    1
  4737  4769  4772    1
  4738  4773  4774    1
  4739  4773  4775    1
  4740  4773  4779    1
  4741  4776  4777    2
  4742  4776  4778    1
  4743  4776  4779    1
  4744  4776  4780    1
  4745  4780  4781    1
  4746  4781  4782    1
  4747  4781  4783    1
  4748  4781  4784    1
  4749  4784  4785    1
  4750  4784  4786    1
  4751  4784  4792    1
  4752  4786  4787    1
  4753  4787  4788    2
  4754  4787  4789    1
  4755  4789  4790    1
  4756  4789  4791    1
  4757  4789  4801    1
  4758  4792  4793    1
  4759  4792  4794    1
  4760  4792  4795    1
  4761  4795  4796    1
  4762  4796  4797    2
  4763  4796  4798    1
  4764  4798  4799    1
  4765  4798  4800    1
  4766  4798  4848    1
  4767  4801  4802    1
  4768  4801  4803    1
  4769  4801  4804    1
  4770  4804  4805    1
  4771  4804  4806    1
  4772  4804  4807    1
  4773  4807  4808    1
  4774  4807  4809    1
  4775  4807  4810    1
  4776  4810  4811    1
  4777  4810  4812    1
  4778  4810  4813    1
  4779  4813  4814    1
  4780  4813  4815    1
  4781  4813  4816    1
  4782  4816  4817    1
  4783  4816  4818    1
  4784  4816  4819    1
  4785  4819  4820    1
  4786  4819  4821    2
  4787  4821  4822    1
  4788  4821  4823    1
  4789  4823  4824    1
  4790  4823  4825    1
  4791  4823  4826    1
  4792  4826  4827    1
  4793  4826  4828    1
  4794  4826  4829    1
  4795  4829  4830    1
  4796  4829  4831    1
  4797  4829  4832    1
  4798  4832  4833    1
  4799  4832  4834    1
  4800  4832  4835    1
  4801  4835  4836    1
  4802  4835  4837    1
  4803  4835  4838    1
  4804  4838  4839    1
  4805  4838  4840    1
  4806  4838  4841    1
  4807  4841  4842    1
  4808  4841  4843    1
  4809  4841  4844    1
  4810  4844  4845    1
  4811  4844  4846    1
  4812  4844  4847    1
  4813  4848  4849    1
  4814  4848  4850    1
  4815  4848  4851    1
  4816  4851  4852    1
  4817  4851  4853    1
  4818  4851  4854    1
  4819  4854  4855    1
  4820  4854  4856    1
  4821  4854  4857    1
  4822  4857  4858    1
  4823  4857  4859    1
  4824  4857  4860    1
  4825  4860  4861    1
  4826  4860  4862    1
  4827  4860  4863    1
  4828  4863  4864    1
  4829  4863  4865    1
  4830  4863  4866    1
  4831  4866  4867    1
  4832  4866  4868    1
  4833  4866  4869    1
  4834  4869  4870    1
  4835  4869  4871    1
  4836  4869  4872    1
  4837  4872  4873    1
  4838  4872  4874    1
  4839  4872  4875    1
  4840  4875  4876    1
  4841  4875  4877    1
  4842  4875  4878    1
  4843  4878  4879    1
  4844  4878  4880    1
  4845  4878  4881    1
  4846  4881  4882    1
  4847  4881  4883    1
  4848  4881  4884    1
  4849  4884  4885    1
  4850  4884  4886    1
  4851  4884  4887    1
  4852  4887  4888    1
  4853  4887  4889    1
  4854  4887  4890    1
  4855  4891  4892    1
  4856  4891  4895    1
  4857  4891  4899    1
  4858  4891  4903    1
  4859  4892  4893    1
  4860  4892  4894    1
  4861  4892  4907    1
  4862  4895  4896    1
  4863  4895  4897    1
  4864  4895  4898    1
  4865  4899  4900    1
  4866  4899  4901    1
  4867  4899  4902    1
  4868  4903  4904    1
  4869  4903  4905    1
  4870  4903  4906    1
  4871  4907  4908    1
  4872  4907  4909    1
  4873  4907  4913    1
  4874  4910  4911    2
  4875  4910  4912    1
  4876  4910  4913    1
  4877  4910  4914    1
  4878  4914  4915    1
  4879  4915  4916    1
  4880  4915  4917    1
  4881  4915  4918    1
  4882  4918  4919    1
  4883  4918  4920    1
  4884  4918  4926    1
  4885  4920  4921    1
  4886  4921  4922    2
  4887  4921  4923    1
  4888  4923  4924    1
  4889  4923  4925    1
  4890  4923  4935    1
  4891  4926  4927    1
  4892  4926  4928    1
  4893  4926  4929    1
  4894  4929  4930    1
  4895  4930  4931    2
  4896  4930  4932    1
  4897  4932  4933    1
  4898  4932  4934    1
  4899  4932  4982    1
  4900  4935  4936    1
  4901  4935  4937    1
  4902  4935  4938    1
  4903  4938  4939    1
  4904  4938  4940    1
  4905  4938  4941    1
  4906  4941  4942    1
  4907  4941  4943    1
  4908  4941  4944    1
  4909  4944  4945    1
  4910  4944  4946    1
  4911  4944  4947    1
  4912  4947  4948    1
  4913  4947  4949    1
  4914  4947  4950    1
  4915  4950  4951    1
  4916  4950  4952    1
  4917  4950  4953    1
  4918  4953  4954    1
  4919  4953  4955    2
  4920  4955  4956    1
  4921  4955  4957    1
  4922  4957  4958    1
  4923  4957  4959    1
  4924  4957  4960    1
  4925  4960  4961    1
  4926  4960  4962    1
  4927  4960  4963    1
  4928  4963  4964    1
  4929  4963  4965    1
  4930  4963  4966    1
  4931  4966  4967    1
  4932  4966  4968    1
  4933  4966  4969    1
  4934  4969  4970    1
  4935  4969  4971    1
  4936  4969  4972    1
  4937  4972  4973    1
  4938  4972  4974    1
  4939  4972  4975    1
  4940  4975  4976    1
  4941  4975  4977    1
  4942  4975  4978    1
  4943  4978  4979    1
  4944  4978  4980    1
  4945  4978  4981    1
  4946  4982  4983    1
  4947  4982  4984    1
  4948  4982  4985    1
  4949  4985  4986    1
  4950  4985  4987    1
  4951  4985  4988    1
  4952  4988  4989    1
  4953  4988  4990    1
  4954  4988  4991    1
  4955  4991  4992    1
  4956  4991  4993    1
  4957  4991  4994    1
  4958  4994  4995    1
  4959  4994  4996    1
  4960  4994  4997    1
  4961  4997  4998    1
  4962  4997  4999    1
  4963  4997  5000    1
  4964  5000  5001    1
  4965  5000  5002    1
  4966  5000  5003    1
  4967  5003  5004    1
  4968  5003  5005    1
  4969  5003  5006    1
  4970  5006  5007    1
  4971  5006  5008    1
  4972  5006  5009    1
  4973  5009  5010    1
  4974  5009  5011    1
  4975  5009  5012    1
  4976  5012  5013    1
  4977  5012  5014    1
  4978  5012  5015    1
  4979  5015  5016    1
  4980  5015  5017    1
  4981  5015  5018    1
  4982  5018  5019    1
  4983  5018  5020    1
  4984  5018  5021    1
  4985  5021  5022    1
  4986  5021  5023    1
  4987  5021  5024    1
  4988  5025  5026    1
  4989  5025  5029    1
  4990  5025  5033    1
  4991  5025  5037    1
  4992  5026  5027    1
  4993  5026  5028    1
  4994  5026  5041    1
  4995  5029  5030    1
  4996  5029  5031    1
  4997  5029  5032    1
  4998  5033  5034    1
  4999  5033  5035    1
  5000  5033  5036    1
  5001  5037  5038    1
  5002  5037  5039    1
  5003  5037  5040    1
  5004  5041  5042    1
  5005  5041  5043    1
  5006  5041  5047    1
  5007  5044  5045    2
  5008  5044  5046    1
  5009  5044  5047    1
  5010  5044  5048    1
  5011  5048  5049    1
  5012  5049  5050    1
  5013  5049  5051    1
  5014  5049  5052    1
  5015  5052  5053    1
  5016  5052  5054    1
  5017  5052  5060    1
  5018  5054  5055    1
  5019  5055  5056    2
  5020  5055  5057    1
  5021  5057  5058    1
  5022  5057  5059    1
  5023  5057  5069    1
  5024  5060  5061    1
  5025  5060  5062    1
  5026  5060  5063    1
  5027  5063  5064    1
  5028  5064  5065    2
  5029  5064  5066    1
  5030  5066  5067    1
  5031  5066  5068    1
  5032  5066  5116    1
  5033  5069  5070    1
  5034  5069  5071    1
  5035  5069  5072    1
  5036  5072  5073    1
  5037  5072  5074    1
  5038  5072  5075    1
  5039  5075  5076    1
  5040  5075  5077    1
  5041  5075  5078    1
  5042  5078  5079    1
  5043  5078  5080    1
  5044  5078  5081    1
  5045  5081  5082    1
  5046  5081  5083    1
  5047  5081  5084    1
  5048  5084  5085    1
  5049  5084  5086    1
  5050  5084  5087    1
  5051  5087  5088    1
  5052  5087  5089    2
  5053  5089  5090    1
  5054  5089  5091    1
  5055  5091  5092    1
  5056  5091  5093    1
  5057  5091  5094    1
  5058  5094  5095    1
  5059  5094  5096    1
  5060  5094  5097    1
  5061  5097  5098    1
  5062  5097  5099    1
  5063  5097  5100    1
  5064  5100  5101    1
  5065  5100  5102    1
  5066  5100  5103    1
  5067  5103  5104    1
  5068  5103  5105    1
  5069  5103  5106    1
  5070  5106  5107    1
  5071  5106  5108    1
  5072  5106  5109    1
  5073  5109  5110    1
  5074  5109  5111    1
  5075  5109  5112    1
  5076  5112  5113    1
  5077  5112  5114    1
  5078  5112  5115    1
  5079  5116  5117    1
  5080  5116  5118    1
  5081  5116  5119    1
  5082  5119  5120    1
  5083  5119  5121    1
  5084  5119  5122    1
  5085  5122  5123    1
  5086  5122  5124    1
  5087  5122  5125    1
  5088  5125  5126    1
  5089  5125  5127    1
  5090  5125  5128    1
  5091  5128  5129    1
  5092  5128  5130    1
  5093  5128  5131    1
  5094  5131  5132    1
  5095  5131  5133    1
  5096  5131  5134    1
  5097  5134  5135    1
  5098  5134  5136    1
  5099  5134  5137    1
  5100  5137  5138    1
  5101  5137  5139    1
  5102  5137  5140    1
  5103  5140  5141    1
  5104  5140  5142    1
  5105  5140  5143    1
  5106  5143  5144    1
  5107  5143  5145    1
  5108  5143  5146    1
  5109  5146  5147    1
  5110  5146  5148    1
  5111  5146  5149    1
  5112  5149  5150    1
  5113  5149  5151    1
  5114  5149  5152    1
  5115  5152  5153    1
  5116  5152  5154    1
  5117  5152  5155    1
  5118  5155  5156    1
  5119  5155  5157    1
  5120  5155  5158    1
  5121  5159  5160    1
  5122  5159  5163    1
  5123  5159  5167    1
  5124  5159  5171    1
  5125  5160  5161    1
  5126  5160  5162    1
  5127  5160  5175    1
  5128  5163  5164    1
  5129  5163  5165    1
  5130  5163  5166    1
  5131  5167  5168    1
  5132  5167  5169    1
  5133  5167  5170    1
  5134  5171  5172    1
  5135  5171  5173    1
  5136  5171  5174    1
  5137  5175  5176    1
  5138  5175  5177    1
  5139  5175  5181    1
  5140  5178  5179    2
  5141  5178  5180    1
  5142  5178  5181    1
  5143  5178  5182    1
  5144  5182  5183    1
  5145  5183  5184    1
  5146  5183  5185    1
  5147  5183  5186    1
  5148  5186  5187    1
  5149  5186  5188    1
  5150  5186  5194    1
  5151  5188  5189    1
  5152  5189  5190    2
  5153  5189  5191    1
  5154  5191  5192    1
  5155  5191  5193    1
  5156  5191  5203    1
  5157  5194  5195    1
  5158  5194  5196    1
  5159  5194  5197    1
  5160  5197  5198    1
  5161  5198  5199    2
  5162  5198  5200    1
  5163  5200  5201    1
  5164  5200  5202    1
  5165  5200  5250    1
  5166  5203  5204    1
  5167  5203  5205    1
  5168  5203  5206    1
  5169  5206  5207    1
  5170  5206  5208    1
  5171  5206  5209    1
  5172  5209  5210    1
  5173  5209  5211    1
  5174  5209  5212    1
  5175  5212  5213    1
  5176  5212  5214    1
  5177  5212  5215    1
  5178  5215  5216    1
  5179  5215  5217    1
  5180  5215  5218    1
  5181  5218  5219    1
  5182  5218  5220    1
  5183  5218  5221    1
  5184  5221  5222    1
  5185  5221  5223    2
  5186  5223  5224    1
  5187  5223  5225    1
  5188  5225  5226    1
  5189  5225  5227    1
  5190  5225  5228    1
  5191  5228  5229    1
  5192  5228  5230    1
  5193  5228  5231    1
  5194  5231  5232    1
  5195  5231  5233    1
  5196  5231  5234    1
  5197  5234  5235    1
  5198  5234  5236    1
  5199  5234  5237    1
  5200  5237  5238    1
  5201  5237  5239    1
  5202  5237  5240    1
  5203  5240  5241    1
  5204  5240  5242    1
  5205  5240  5243    1
  5206  5243  5244    1
  5207  5243  5245    1
  5208  5243  5246    1
  5209  5246  5247    1
  5210  5246  5248    1
  5211  5246  5249    1
  5212  5250  5251    1
  5213  5250  5252    1
  5214  5250  5253    1
  5215  5253  5254    1
  5216  5253  5255    1
  5217  5253  5256    1
  5218  5256  5257    1
  5219  5256  5258    1
  5220  5256  5259    1
  5221  5259  5260    1
  5222  5259  5261    1
  5223  5259  5262    1
  5224  5262  5263    1
  5225  5262  5264    1
  5226  5262  5265    1
  5227  5265  5266    1
  5228  5265  5267    1
  5229  5265  5268    1
  5230  5268  5269    1
  5231  5268  5270    1
  5232  5268  5271    1
  5233  5271  5272    1
  5234  5271  5273    1
  5235  5271  5274    1
  5236  5274  5275    1
  5237  5274  5276    1
  5238  5274  5277    1
  5239  5277  5278    1
  5240  5277  5279    1
  5241  5277  5280    1
  5242  5280  5281    1
  5243  5280  5282    1
  5244  5280  5283    1
  5245  5283  5284    1
  5246  5283  5285    1
  5247  5283  5286    1
  5248  5286  5287    1
  5249  5286  5288    1
  5250  5286  5289    1
  5251  5289  5290    1
  5252  5289  5291    1
  5253  5289  5292    1
  5254  5293  5294    1
  5255  5293  5297    1
  5256  5293  5301    1
  5257  5293  5305    1
  5258  5294  5295    1
  5259  5294  5296    1
  5260  5294  5309    1
  5261  5297  5298    1
  5262  5297  5299    1
  5263  5297  5300    1
  5264  5301  5302    1
  5265  5301  5303    1
  5266  5301  5304    1
  5267  5305  5306    1
  5268  5305  5307    1
  5269  5305  5308    1
  5270  5309  5310    1
  5271  5309  5311    1
  5272  5309  5315    1
  5273  5312  5313    2
  5274  5312  5314    1
  5275  5312  5315    1
  5276  5312  5316    1
  5277  5316  5317    1
  5278  5317  5318    1
  5279  5317  5319    1
  5280  5317  5320    1
  5281  5320  5321    1
  5282  5320  5322    1
  5283  5320  5328    1
  5284  5322  5323    1
  5285  5323  5324    2
  5286  5323  5325    1
  5287  5325  5326    1
  5288  5325  5327    1
  5289  5325  5337    1
  5290  5328  5329    1
  5291  5328  5330    1
  5292  5328  5331    1
  5293  5331  5332    1
  5294  5332  5333    2
  5295  5332  5334    1
  5296  5334  5335    1
  5297  5334  5336    1
  5298  5334  5384    1
  5299  5337  5338    1
  5300  5337  5339    1
  5301  5337  5340    1
  5302  5340  5341    1
  5303  5340  5342    1
  5304  5340  5343    1
  5305  5343  5344    1
  5306  5343  5345    1
  5307  5343  5346    1
  5308  5346  5347    1
  5309  5346  5348    1
  5310  5346  5349    1
  5311  5349  5350    1
  5312  5349  5351    1
  5313  5349  5352    1
  5314  5352  5353    1
  5315  5352  5354    1
  5316  5352  5355    1
  5317  5355  5356    1
  5318  5355  5357    2
  5319  5357  5358    1
  5320  5357  5359    1
  5321  5359  5360    1
  5322  5359  5361    1
  5323  5359  5362    1
  5324  5362  5363    1
  5325  5362  5364    1
  5326  5362  5365    1
  5327  5365  5366    1
  5328  5365  5367    1
  5329  5365  5368    1
  5330  5368  5369    1
  5331  5368  5370    1
  5332  5368  5371    1
  5333  5371  5372    1
  5334  5371  5373    1
  5335  5371  5374    1
  5336  5374  5375    1
  5337  5374  5376    1
  5338  5374  5377    1
  5339  5377  5378    1
  5340  5377  5379    1
  5341  5377  5380    1
  5342  5380  5381    1
  5343  5380  5382    1
  5344  5380  5383    1
  5345  5384  5385    1
  5346  5384  5386    1
  5347  5384  5387    1
  5348  5387  5388    1
  5349  5387  5389    1
  5350  5387  5390    1
  5351  5390  5391    1
  5352  5390  5392    1
  5353  5390  5393    1
  5354  5393  5394    1
  5355  5393  5395    1
  5356  5393  5396    1
  5357  5396  5397    1
  5358  5396  5398    1
  5359  5396  5399    1
  5360  5399  5400    1
  5361  5399  5401    1
  5362  5399  5402    1
  5363  5402  5403    1
  5364  5402  5404    1
  5365  5402  5405    1
  5366  5405  5406    1
  5367  5405  5407    1
  5368  5405  5408    1
  5369  5408  5409    1
  5370  5408  5410    1
  5371  5408  5411    1
  5372  5411  5412    1
  5373  5411  5413    1
  5374  5411  5414    1
  5375  5414  5415    1
  5376  5414  5416    1
  5377  5414  5417    1
  5378  5417  5418    1
  5379  5417  5419    1
  5380  5417  5420    1
  5381  5420  5421    1
  5382  5420  5422    1
  5383  5420  5423    1
  5384  5423  5424    1
  5385  5423  5425    1
  5386  5423  5426    1
  5387  5427  5428    1
  5388  5427  5431    1
  5389  5427  5435    1
  5390  5427  5439    1
  5391  5428  5429    1
  5392  5428  5430    1
  5393  5428  5443    1
  5394  5431  5432    1
  5395  5431  5433    1
  5396  5431  5434    1
  5397  5435  5436    1
  5398  5435  5437    1
  5399  5435  5438    1
  5400  5439  5440    1
  5401  5439  5441    1
  5402  5439  5442    1
  5403  5443  5444    1
  5404  5443  5445    1
  5405  5443  5449    1
  5406  5446  5447    2
  5407  5446  5448    1
  5408  5446  5449    1
  5409  5446  5450    1
  5410  5450  5451    1
  5411  5451  5452    1
  5412  5451  5453    1
  5413  5451  5454    1
  5414  5454  5455    1
  5415  5454  5456    1
  5416  5454  5462    1
  5417  5456  5457    1
  5418  5457  5458    2
  5419  5457  5459    1
  5420  5459  5460    1
  5421  5459  5461    1
  5422  5459  5471    1
  5423  5462  5463    1
  5424  5462  5464    1
  5425  5462  5465    1
  5426  5465  5466    1
  5427  5466  5467    2
  5428  5466  5468    1
  5429  5468  5469    1
  5430  5468  5470    1
  5431  5468  5518    1
  5432  5471  5472    1
  5433  5471  5473    1
  5434  5471  5474    1
  5435  5474  5475    1
  5436  5474  5476    1
  5437  5474  5477    1
  5438  5477  5478    1
  5439  5477  5479    1
  5440  5477  5480    1
  5441  5480  5481    1
  5442  5480  5482    1
  5443  5480  5483    1
  5444  5483  5484    1
  5445  5483  5485    1
  5446  5483  5486    1
  5447  5486  5487    1
  5448  5486  5488    1
  5449  5486  5489    1
  5450  5489  5490    1
  5451  5489  5491    2
  5452  5491  5492    1
  5453  5491  5493    1
  5454  5493  5494    1
  5455  5493  5495    1
  5456  5493  5496    1
  5457  5496  5497    1
  5458  5496  5498    1
  5459  5496  5499    1
  5460  5499  5500    1
  5461  5499  5501    1
  5462  5499  5502    1
  5463  5502  5503    1
  5464  5502  5504    1
  5465  5502  5505    1
  5466  5505  5506    1
  5467  5505  5507    1
  5468  5505  5508    1
  5469  5508  5509    1
  5470  5508  5510    1
  5471  5508  5511    1
  5472  5511  5512    1
  5473  5511  5513    1
  5474  5511  5514    1
  5475  5514  5515    1
  5476  5514  5516    1
  5477  5514  5517    1
  5478  5518  5519    1
  5479  5518  5520    1
  5480  5518  5521    1
  5481  5521  5522    1
  5482  5521  5523    1
  5483  5521  5524    1
  5484  5524  5525    1
  5485  5524  5526    1
  5486  5524  5527    1
  5487  5527  5528    1
  5488  5527  5529    1
  5489  5527  5530    1
  5490  5530  5531    1
  5491  5530  5532    1
  5492  5530  5533    1
  5493  5533  5534    1
  5494  5533  5535    1
  5495  5533  5536    1
  5496  5536  5537    1
  5497  5536  5538    1
  5498  5536  5539    1
  5499  5539  5540    1
  5500  5539  5541    1
  5501  5539  5542    1
  5502  5542  5543    1
  5503  5542  5544    1
  5504  5542  5545    1
  5505  5545  5546    1
  5506  5545  5547    1
  5507  5545  5548    1
  5508  5548  5549    1
  5509  5548  5550    1
  5510  5548  5551    1
  5511  5551  5552    1
  5512  5551  5553    1
  5513  5551  5554    1
  5514  5554  5555    1
  5515  5554  5556    1
  5516  5554  5557    1
  5517  5557  5558    1
  5518  5557  5559    1
  5519  5557  5560    1
  5520  5561  5562    1
  5521  5561  5565    1
  5522  5561  5569    1
  5523  5561  5573    1
  5524  5562  5563    1
  5525  5562  5564    1
  5526  5562  5577    1
  5527  5565  5566    1
  5528  5565  5567    1
  5529  5565  5568    1
  5530  5569  5570    1
  5531  5569  5571    1
  5532  5569  5572    1
  5533  5573  5574    1
  5534  5573  5575    1
  5535  5573  5576    1
  5536  5577  5578    1
  5537  5577  5579    1
  5538  5577  5583    1
  5539  5580  5581    2
  5540  5580  5582    1
  5541  5580  5583    1
  5542  5580  5584    1
  5543  5584  5585    1
  5544  5585  5586    1
  5545  5585  5587    1
  5546  5585  5588    1
  5547  5588  5589    1
  5548  5588  5590    1
  5549  5588  5596    1
  5550  5590  5591    1
  5551  5591  5592    2
  5552  5591  5593    1
  5553  5593  5594    1
  5554  5593  5595    1
  5555  5593  5605    1
  5556  5596  5597    1
  5557  5596  5598    1
  5558  5596  5599    1
  5559  5599  5600    1
  5560  5600  5601    2
  5561  5600  5602    1
  5562  5602  5603    1
  5563  5602  5604    1
  5564  5602  5652    1
  5565  5605  5606    1
  5566  5605  5607    1
  5567  5605  5608    1
  5568  5608  5609    1
  5569  5608  5610    1
  5570  5608  5611    1
  5571  5611  5612    1
  5572  5611  5613    1
  5573  5611  5614    1
  5574  5614  5615    1
  5575  5614  5616    1
  5576  5614  5617    1
  5577  5617  5618    1
  5578  5617  5619    1
  5579  5617  5620    1
  5580  5620  5621    1
  5581  5620  5622    1
  5582  5620  5623    1
  5583  5623  5624    1
  5584  5623  5625    2
  5585  5625  5626    1
  5586  5625  5627    1
  5587  5627  5628    1
  5588  5627  5629    1
  5589  5627  5630    1
  5590  5630  5631    1
  5591  5630  5632    1
  5592  5630  5633    1
  5593  5633  5634    1
  5594  5633  5635    1
  5595  5633  5636    1
  5596  5636  5637    1
  5597  5636  5638    1
  5598  5636  5639    1
  5599  5639  5640    1
  5600  5639  5641    1
  5601  5639  5642    1
  5602  5642  5643    1
  5603  5642  5644    1
  5604  5642  5645    1
  5605  5645  5646    1
  5606  5645  5647    1
  5607  5645  5648    1
  5608  5648  5649    1
  5609  5648  5650    1
  5610  5648  5651    1
  5611  5652  5653    1
  5612  5652  5654    1
  5613  5652  5655    1
  5614  5655  5656    1
  5615  5655  5657    1
  5616  5655  5658    1
  5617  5658  5659    1
  5618  5658  5660    1
  5619  5658  5661    1
  5620  5661  5662    1
  5621  5661  5663    1
  5622  5661  5664    1
  5623  5664  5665    1
  5624  5664  5666    1
  5625  5664  5667    1
  5626  5667  5668    1
  5627  5667  5669    1
  5628  5667  5670    1
  5629  5670  5671    1
  5630  5670  5672    1
  5631  5670  5673    1
  5632  5673  5674    1
  5633  5673  5675    1
  5634  5673  5676    1
  5635  5676  5677    1
  5636  5676  5678    1
  5637  5676  5679    1
  5638  5679  5680    1
  5639  5679  5681    1
  5640  5679  5682    1
  5641  5682  5683    1
  5642  5682  5684    1
  5643  5682  5685    1
  5644  5685  5686    1
  5645  5685  5687    1
  5646  5685  5688    1
  5647  5688  5689    1
  5648  5688  5690    1
  5649  5688  5691    1
  5650  5691  5692    1
  5651  5691  5693    1
  5652  5691  5694    1
  5653  5695  5696    1
  5654  5695  5699    1
  5655  5695  5703    1
  5656  5695  5707    1
  5657  5696  5697    1
  5658  5696  5698    1
  5659  5696  5711    1
  5660  5699  5700    1
  5661  5699  5701    1
  5662  5699  5702    1
  5663  5703  5704    1
  5664  5703  5705    1
  5665  5703  5706    1
  5666  5707  5708    1
  5667  5707  5709    1
  5668  5707  5710    1
  5669  5711  5712    1
  5670  5711  5713    1
  5671  5711  5717    1
  5672  5714  5715    2
  5673  5714  5716    1
  5674  5714  5717    1
  5675  5714  5718    1
  5676  5718  5719    1
  5677  5719  5720    1
  5678  5719  5721    1
  5679  5719  5722    1
  5680  5722  5723    1
  5681  5722  5724    1
  5682  5722  5730    1
  5683  5724  5725    1
  5684  5725  5726    2
  5685  5725  5727    1
  5686  5727  5728    1
  5687  5727  5729    1
  5688  5727  5739    1
  5689  5730  5731    1
  5690  5730  5732    1
  5691  5730  5733    1
  5692  5733  5734    1
  5693  5734  5735    2
  5694  5734  5736    1
  5695  5736  5737    1
  5696  5736  5738    1
  5697  5736  5786    1
  5698  5739  5740    1
  5699  5739  5741    1
  5700  5739  5742    1
  5701  5742  5743    1
  5702  5742  5744    1
  5703  5742  5745    1
  5704  5745  5746    1
  5705  5745  5747    1
  5706  5745  5748    1
  5707  5748  5749    1
  5708  5748  5750    1
  5709  5748  5751    1
  5710  5751  5752    1
  5711  5751  5753    1
  5712  5751  5754    1
  5713  5754  5755    1
  5714  5754  5756    1
  5715  5754  5757    1
  5716  5757  5758    1
  5717  5757  5759    2
  5718  5759  5760    1
  5719  5759  5761    1
  5720  5761  5762    1
  5721  5761  5763    1
  5722  5761  5764    1
  5723  5764  5765    1
  5724  5764  5766    1
  5725  5764  5767    1
  5726  5767  5768    1
  5727  5767  5769    1
  5728  5767  5770    1
  5729  5770  5771    1
  5730  5770  5772    1
  5731  5770  5773    1
  5732  5773  5774    1
  5733  5773  5775    1
  5734  5773  5776    1
  5735  5776  5777    1
  5736  5776  5778    1
  5737  5776  5779    1
  5738  5779  5780    1
  5739  5779  5781    1
  5740  5779  5782    1
  5741  5782  5783    1
  5742  5782  5784    1
  5743  5782  5785    1
  5744  5786  5787    1
  5745  5786  5788    1
  5746  5786  5789    1
  5747  5789  5790    1
  5748  5789  5791    1
  5749  5789  5792    1
  5750  5792  5793    1
  5751  5792  5794    1
  5752  5792  5795    1
  5753  5795  5796    1
  5754  5795  5797    1
  5755  5795  5798    1
  5756  5798  5799    1
  5757  5798  5800    1
  5758  5798  5801    1
  5759  5801  5802    1
  5760  5801  5803    1
  5761  5801  5804    1
  5762  5804  5805    1
  5763  5804  5806    1
  5764  5804  5807    1
  5765  5807  5808    1
  5766  5807  5809    1
  5767  5807  5810    1
  5768  5810  5811    1
  5769  5810  5812    1
  5770  5810  5813    1
  5771  5813  5814    1
  5772  5813  5815    1
  5773  5813  5816    1
  5774  5816  5817    1
  5775  5816  5818    1
  5776  5816  5819    1
  5777  5819  5820    1
  5778  5819  5821    1
  5779  5819  5822    1
  5780  5822  5823    1
  5781  5822  5824    1
  5782  5822  5825    1
  5783  5825  5826    1
  5784  5825  5827    1
  5785  5825  5828    1
  5786  5829  5830    1
  5787  5829  5833    1
  5788  5829  5837    1
  5789  5829  5841    1
  5790  5830  5831    1
  5791  5830  5832    1
  5792  5830  5845    1
  5793  5833  5834    1
  5794  5833  5835    1
  5795  5833  5836    1
  5796  5837  5838    1
  5797  5837  5839    1
  5798  5837  5840    1
  5799  5841  5842    1
  5800  5841  5843    1
  5801  5841  5844    1
  5802  5845  5846    1
  5803  5845  5847    1
  5804  5845  5851    1
  5805  5848  5849    2
  5806  5848  5850    1
  5807  5848  5851    1
  5808  5848  5852    1
  5809  5852  5853    1
  5810  5853  5854    1
  5811  5853  5855    1
  5812  5853  5856    1
  5813  5856  5857    1
  5814  5856  5858    1
  5815  5856  5864    1
  5816  5858  5859    1
  5817  5859  5860    2
  5818  5859  5861    1
  5819  5861  5862    1
  5820  5861  5863    1
  5821  5861  5873    1
  5822  5864  5865    1
  5823  5864  5866    1
  5824  5864  5867    1
  5825  5867  5868    1
  5826  5868  5869    2
  5827  5868  5870    1
  5828  5870  5871    1
  5829  5870  5872    1
  5830  5870  5920    1
  5831  5873  5874    1
  5832  5873  5875    1
  5833  5873  5876    1
  5834  5876  5877    1
  5835  5876  5878    1
  5836  5876  5879    1
  5837  5879  5880    1
  5838  5879  5881    1
  5839  5879  5882    1
  5840  5882  5883    1
  5841  5882  5884    1
  5842  5882  5885    1
  5843  5885  5886    1
  5844  5885  5887    1
  5845  5885  5888    1
  5846  5888  5889    1
  5847  5888  5890    1
  5848  5888  5891    1
  5849  5891  5892    1
  5850  5891  5893    2
  5851  5893  5894    1
  5852  5893  5895    1
  5853  5895  5896    1
  5854  5895  5897    1
  5855  5895  5898    1
  5856  5898  5899    1
  5857  5898  5900    1
  5858  5898  5901    1
  5859  5901  5902    1
  5860  5901  5903    1
  5861  5901  5904    1
  5862  5904  5905    1
  5863  5904  5906    1
  5864  5904  5907    1
  5865  5907  5908    1
  5866  5907  5909    1
  5867  5907  5910    1
  5868  5910  5911    1
  5869  5910  5912    1
  5870  5910  5913    1
  5871  5913  5914    1
  5872  5913  5915    1
  5873  5913  5916    1
  5874  5916  5917    1
  5875  5916  5918    1
  5876  5916  5919    1
  5877  5920  5921    1
  5878  5920  5922    1
  5879  5920  5923    1
  5880  5923  5924    1
  5881  5923  5925    1
  5882  5923  5926    1
  5883  5926  5927    1
  5884  5926  5928    1
  5885  5926  5929    1
  5886  5929  5930    1
  5887  5929  5931    1
  5888  5929  5932    1
  5889  5932  5933    1
  5890  5932  5934    1
  5891  5932  5935    1
  5892  5935  5936    1
  5893  5935  5937    1
  5894  5935  5938    1
  5895  5938  5939    1
  5896  5938  5940    1
  5897  5938  5941    1
  5898  5941  5942    1
  5899  5941  5943    1
  5900  5941  5944    1
  5901  5944  5945    1
  5902  5944  5946    1
  5903  5944  5947    1
  5904  5947  5948    1
  5905  5947  5949    1
  5906  5947  5950    1
  5907  5950  5951    1
  5908  5950  5952    1
  5909  5950  5953    1
  5910  5953  5954    1
  5911  5953  5955    1
  5912  5953  5956    1
  5913  5956  5957    1
  5914  5956  5958    1
  5915  5956  5959    1
  5916  5959  5960    1
  5917  5959  5961    1
  5918  5959  5962    1
  5919  5963  5964    1
  5920  5963  5967    1
  5921  5963  5971    1
  5922  5963  5975    1
  5923  5964  5965    1
  5924  5964  5966    1
  5925  5964  5979    1
  5926  5967  5968    1
  5927  5967  5969    1
  5928  5967  5970    1
  5929  5971  5972    1
  5930  5971  5973    1
  5931  5971  5974    1
  5932  5975  5976    1
  5933  5975  5977    1
  5934  5975  5978    1
  5935  5979  5980    1
  5936  5979  5981    1
  5937  5979  5985    1
  5938  5982  5983    2
  5939  5982  5984    1
  5940  5982  5985    1
  5941  5982  5986    1
  5942  5986  5987    1
  5943  5987  5988    1
  5944  5987  5989    1
  5945  5987  5990    1
  5946  5990  5991    1
  5947  5990  5992    1
  5948  5990  5998    1
  5949  5992  5993    1
  5950  5993  5994    2
  5951  5993  5995    1
  5952  5995  5996    1
  5953  5995  5997    1
  5954  5995  6007    1
  5955  5998  5999    1
  5956  5998  6000    1
  5957  5998  6001    1
  5958  6001  6002    1
  5959  6002  6003    2
  5960  6002  6004    1
  5961  6004  6005    1
  5962  6004  6006    1
  5963  6004  6054    1
  5964  6007  6008    1
  5965  6007  6009    1
  5966  6007  6010    1
  5967  6010  6011    1
  5968  6010  6012    1
  5969  6010  6013    1
  5970  6013  6014    1
  5971  6013  6015    1
  5972  6013  6016    1
  5973  6016  6017    1
  5974  6016  6018    1
  5975  6016  6019    1
  5976  6019  6020    1
  5977  6019  6021    1
  5978  6019  6022    1
  5979  6022  6023    1
  5980  6022  6024    1
  5981  6022  6025    1
  5982  6025  6026    1
  5983  6025  6027    2
  5984  6027  6028    1
  5985  6027  6029    1
  5986  6029  6030    1
  5987  6029  6031    1
  5988  6029  6032    1
  5989  6032  6033    1
  5990  6032  6034    1
  5991  6032  6035    1
  5992  6035  6036    1
  5993  6035  6037    1
  5994  6035  6038    1
  5995  6038  6039    1
  5996  6038  6040    1
  5997  6038  6041    1
  5998  6041  6042    1
  5999  6041  6043    1
  6000  6041  6044    1
  6001  6044  6045    1
  6002  6044  6046    1
  6003  6044  6047    1
  6004  6047  6048    1
  6005  6047  6049    1
  6006  6047  6050    1
  6007  6050  6051    1
  6008  6050  6052    1
  6009  6050  6053    1
  6010  6054  6055    1
  6011  6054  6056    1
  6012  6054  6057    1
  6013  6057  6058    1
  6014  6057  6059    1
  6015  6057  6060    1
  6016  6060  6061    1
  6017  6060  6062    1
  6018  6060  6063    1
  6019  6063  6064    1
  6020  6063  6065    1
  6021  6063  6066    1
  6022  6066  6067    1
  6023  6066  6068    1
  6024  6066  6069    1
  6025  6069  6070    1
  6026  6069  6071    1
  6027  6069  6072    1
  6028  6072  6073    1
  6029  6072  6074    1
  6030  6072  6075    1
  6031  6075  6076    1
  6032  6075  6077    1
  6033  6075  6078    1
  6034  6078  6079    1
  6035  6078  6080    1
  6036  6078  6081    1
  6037  6081  6082    1
  6038  6081  6083    1
  6039  6081  6084    1
  6040  6084  6085    1
  6041  6084  6086    1
  6042  6084  6087    1
  6043  6087  6088    1
  6044  6087  6089    1
  6045  6087  6090    1
  6046  6090  6091    1
  6047  6090  6092    1
  6048  6090  6093    1
  6049  6093  6094    1
  6050  6093  6095    1
  6051  6093  6096    1
  6052  6097  6098    1
  6053  6097  6101    1
  6054  6097  6105    1
  6055  6097  6109    1
  6056  6098  6099    1
  6057  6098  6100    1
  6058  6098  6113    1
  6059  6101  6102    1
  6060  6101  6103    1
  6061  6101  6104    1
  6062  6105  6106    1
  6063  6105  6107    1
  6064  6105  6108    1
  6065  6109  6110    1
  6066  6109  6111    1
  6067  6109  6112    1
  6068  6113  6114    1
  6069  6113  6115    1
  6070  6113  6119    1
  6071  6116  6117    2
  6072  6116  6118    1
  6073  6116  6119    1
  6074  6116  6120    1
  6075  6120  6121    1
  6076  6121  6122    1
  6077  6121  6123    1
  6078  6121  6124    1
  6079  6124  6125    1
  6080  6124  6126    1
  6081  6124  6132    1
  6082  6126  6127    1
  6083  6127  6128    2
  6084  6127  6129    1
  6085  6129  6130    1
  6086  6129  6131    1
  6087  6129  6141    1
  6088  6132  6133    1
  6089  6132  6134    1
  6090  6132  6135    1
  6091  6135  6136    1
  6092  6136  6137    2
  6093  6136  6138    1
  6094  6138  6139    1
  6095  6138  6140    1
  6096  6138  6188    1
  6097  6141  6142    1
  6098  6141  6143    1
  6099  6141  6144    1
  6100  6144  6145    1
  6101  6144  6146    1
  6102  6144  6147    1
  6103  6147  6148    1
  6104  6147  6149    1
  6105  6147  6150    1
  6106  6150  6151    1
  6107  6150  6152    1
  6108  6150  6153    1
  6109  6153  6154    1
  6110  6153  6155    1
  6111  6153  6156    1
  6112  6156  6157    1
  6113  6156  6158    1
  6114  6156  6159    1
  6115  6159  6160    1
  6116  6159  6161    2
  6117  6161  6162    1
  6118  6161  6163    1
  6119  6163  6164    1
  6120  6163  6165    1
  6121  6163  6166    1
  6122  6166  6167    1
  6123  6166  6168    1
  6124  6166  6169    1
  6125  6169  6170    1
  6126  6169  6171    1
  6127  6169  6172    1
  6128  6172  6173    1
  6129  6172  6174    1
  6130  6172  6175    1
  6131  6175  6176    1
  6132  6175  6177    1
  6133  6175  6178    1
  6134  6178  6179    1
  6135  6178  6180    1
  6136  6178  6181    1
  6137  6181  6182    1
  6138  6181  6183    1
  6139  6181  6184    1
  6140  6184  6185    1
  6141  6184  6186    1
  6142  6184  6187    1
  6143  6188  6189    1
  6144  6188  6190    1
  6145  6188  6191    1
  6146  6191  6192    1
  6147  6191  6193    1
  6148  6191  6194    1
  6149  6194  6195    1
  6150  6194  6196    1
  6151  6194  6197    1
  6152  6197  6198    1
  6153  6197  6199    1
  6154  6197  6200    1
  6155  6200  6201    1
  6156  6200  6202    1
  6157  6200  6203    1
  6158  6203  6204    1
  6159  6203  6205    1
  6160  6203  6206    1
  6161  6206  6207    1
  6162  6206  6208    1
  6163  6206  6209    1
  6164  6209  6210    1
  6165  6209  6211    1
  6166  6209  6212    1
  6167  6212  6213    1
  6168  6212  6214    1
  6169  6212  6215    1
  6170  6215  6216    1
  6171  6215  6217    1
  6172  6215  6218    1
  6173  6218  6219    1
  6174  6218  6220    1
  6175  6218  6221    1
  6176  6221  6222    1
  6177  6221  6223    1
  6178  6221  6224    1
  6179  6224  6225    1
  6180  6224  6226    1
  6181  6224  6227    1
  6182  6227  6228    1
  6183  6227  6229    1
  6184  6227  6230    1
  6185  6231  6232    1
  6186  6231  6235    1
  6187  6231  6239    1
  6188  6231  6243    1
  6189  6232  6233    1
  6190  6232  6234    1
  6191  6232  6247    1
  6192  6235  6236    1
  6193  6235  6237    1
  6194  6235  6238    1
  6195  6239  6240    1
  6196  6239  6241    1
  6197  6239  6242    1
  6198  6243  6244    1
  6199  6243  6245    1
  6200  6243  6246    1
  6201  6247  6248    1
  6202  6247  6249    1
  6203  6247  6253    1
  6204  6250  6251    2
  6205  6250  6252    1
  6206  6250  6253    1
  6207  6250  6254    1
  6208  6254  6255    1
  6209  6255  6256    1
  6210  6255  6257    1
  6211  6255  6258    1
  6212  6258  6259    1
  6213  6258  6260    1
  6214  6258  6266    1
  6215  6260  6261    1
  6216  6261  6262    2
  6217  6261  6263    1
  6218  6263  6264    1
  6219  6263  6265    1
  6220  6263  6275    1
  6221  6266  6267    1
  6222  6266  6268    1
  6223  6266  6269    1
  6224  6269  6270    1
  6225  6270  6271    2
  6226  6270  6272    1
  6227  6272  6273    1
  6228  6272  6274    1
  6229  6272  6322    1
  6230  6275  6276    1
  6231  6275  6277    1
  6232  6275  6278    1
  6233  6278  6279    1
  6234  6278  6280    1
  6235  6278  6281    1
  6236  6281  6282    1
  6237  6281  6283    1
  6238  6281  6284    1
  6239  6284  6285    1
  6240  6284  6286    1
  6241  6284  6287    1
  6242  6287  6288    1
  6243  6287  6289    1
  6244  6287  6290    1
  6245  6290  6291    1
  6246  6290  6292    1
  6247  6290  6293    1
  6248  6293  6294    1
  6249  6293  6295    2
  6250  6295  6296    1
  6251  6295  6297    1
  6252  6297  6298    1
  6253  6297  6299    1
  6254  6297  6300    1
  6255  6300  6301    1
  6256  6300  6302    1
  6257  6300  6303    1
  6258  6303  6304    1
  6259  6303  6305    1
  6260  6303  6306    1
  6261  6306  6307    1
  6262  6306  6308    1
  6263  6306  6309    1
  6264  6309  6310    1
  6265  6309  6311    1
  6266  6309  6312    1
  6267  6312  6313    1
  6268  6312  6314    1
  6269  6312  6315    1
  6270  6315  6316    1
  6271  6315  6317    1
  6272  6315  6318    1
  6273  6318  6319    1
  6274  6318  6320    1
  6275  6318  6321    1
  6276  6322  6323    1
  6277  6322  6324    1
  6278  6322  6325    1
  6279  6325  6326    1
  6280  6325  6327    1
  6281  6325  6328    1
  6282  6328  6329    1
  6283  6328  6330    1
  6284  6328  6331    1
  6285  6331  6332    1
  6286  6331  6333    1
  6287  6331  6334    1
  6288  6334  6335    1
  6289  6334  6336    1
  6290  6334  6337    1
  6291  6337  6338    1
  6292  6337  6339    1
  6293  6337  6340    1
  6294  6340  6341    1
  6295  6340  6342    1
  6296  6340  6343    1
  6297  6343  6344    1
  6298  6343  6345    1
  6299  6343  6346    1
  6300  6346  6347    1
  6301  6346  6348    1
  6302  6346  6349    1
  6303  6349  6350    1
  6304  6349  6351    1
  6305  6349  6352    1
  6306  6352  6353    1
  6307  6352  6354    1
  6308  6352  6355    1
  6309  6355  6356    1
  6310  6355  6357    1
  6311  6355  6358    1
  6312  6358  6359    1
  6313  6358  6360    1
  6314  6358  6361    1
  6315  6361  6362    1
  6316  6361  6363    1
  6317  6361  6364    1
  6318  6365  6366    1
  6319  6365  6369    1
  6320  6365  6373    1
  6321  6365  6377    1
  6322  6366  6367    1
  6323  6366  6368    1
  6324  6366  6381    1
  6325  6369  6370    1
  6326  6369  6371    1
  6327  6369  6372    1
  6328  6373  6374    1
  6329  6373  6375    1
  6330  6373  6376    1
  6331  6377  6378    1
  6332  6377  6379    1
  6333  6377  6380    1
  6334  6381  6382    1
  6335  6381  6383    1
  6336  6381  6387    1
  6337  6384  6385    2
  6338  6384  6386    1
  6339  6384  6387    1
  6340  6384  6388    1
  6341  6388  6389    1
  6342  6389  6390    1
  6343  6389  6391    1
  6344  6389  6392    1
  6345  6392  6393    1
  6346  6392  6394    1
  6347  6392  6400    1
  6348  6394  6395    1
  6349  6395  6396    2
  6350  6395  6397    1
  6351  6397  6398    1
  6352  6397  6399    1
  6353  6397  6409    1
  6354  6400  6401    1
  6355  6400  6402    1
  6356  6400  6403    1
  6357  6403  6404    1
  6358  6404  6405    2
  6359  6404  6406    1
  6360  6406  6407    1
  6361  6406  6408    1
  6362  6406  6456    1
  6363  6409  6410    1
  6364  6409  6411    1
  6365  6409  6412    1
  6366  6412  6413    1
  6367  6412  6414    1
  6368  6412  6415    1
  6369  6415  6416    1
  6370  6415  6417    1
  6371  6415  6418    1
  6372  6418  6419    1
  6373  6418  6420    1
  6374  6418  6421    1
  6375  6421  6422    1
  6376  6421  6423    1
  6377  6421  6424    1
  6378  6424  6425    1
  6379  6424  6426    1
  6380  6424  6427    1
  6381  6427  6428    1
  6382  6427  6429    2
  6383  6429  6430    1
  6384  6429  6431    1
  6385  6431  6432    1
  6386  6431  6433    1
  6387  6431  6434    1
  6388  6434  6435    1
  6389  6434  6436    1
  6390  6434  6437    1
  6391  6437  6438    1
  6392  6437  6439    1
  6393  6437  6440    1
  6394  6440  6441    1
  6395  6440  6442    1
  6396  6440  6443    1
  6397  6443  6444    1
  6398  6443  6445    1
  6399  6443  6446    1
  6400  6446  6447    1
  6401  6446  6448    1
  6402  6446  6449    1
  6403  6449  6450    1
  6404  6449  6451    1
  6405  6449  6452    1
  6406  6452  6453    1
  6407  6452  6454    1
  6408  6452  6455    1
  6409  6456  6457    1
  6410  6456  6458    1
  6411  6456  6459    1
  6412  6459  6460    1
  6413  6459  6461    1
  6414  6459  6462    1
  6415  6462  6463    1
  6416  6462  6464    1
  6417  6462  6465    1
  6418  6465  6466    1
  6419  6465  6467    1
  6420  6465  6468    1
  6421  6468  6469    1
  6422  6468  6470    1
  6423  6468  6471    1
  6424  6471  6472    1
  6425  6471  6473    1
  6426  6471  6474    1
  6427  6474  6475    1
  6428  6474  6476    1
  6429  6474  6477    1
  6430  6477  6478    1
  6431  6477  6479    1
  6432  6477  6480    1
  6433  6480  6481    1
  6434  6480  6482    1
  6435  6480  6483    1
  6436  6483  6484    1
  6437  6483  6485    1
  6438  6483  6486    1
  6439  6486  6487    1
  6440  6486  6488    1
  6441  6486  6489    1
  6442  6489  6490    1
  6443  6489  6491    1
  6444  6489  6492    1
  6445  6492  6493    1
  6446  6492  6494    1
  6447  6492  6495    1
  6448  6495  6496    1
  6449  6495  6497    1
  6450  6495  6498    1
  6451  6499  6500    1
  6452  6499  6503    1
  6453  6499  6507    1
  6454  6499  6511    1
  6455  6500  6501    1
  6456  6500  6502    1
  6457  6500  6515    1
  6458  6503  6504    1
  6459  6503  6505    1
  6460  6503  6506    1
  6461  6507  6508    1
  6462  6507  6509    1
  6463  6507  6510    1
  6464  6511  6512    1
  6465  6511  6513    1
  6466  6511  6514    1
  6467  6515  6516    1
  6468  6515  6517    1
  6469  6515  6521    1
  6470  6518  6519    2
  6471  6518  6520    1
  6472  6518  6521    1
  6473  6518  6522    1
  6474  6522  6523    1
  6475  6523  6524    1
  6476  6523  6525    1
  6477  6523  6526    1
  6478  6526  6527    1
  6479  6526  6528    1
  6480  6526  6534    1
  6481  6528  6529    1
  6482  6529  6530    2
  6483  6529  6531    1
  6484  6531  6532    1
  6485  6531  6533    1
  6486  6531  6543    1
  6487  6534  6535    1
  6488  6534  6536    1
  6489  6534  6537    1
  6490  6537  6538    1
  6491  6538  6539    2
  6492  6538  6540    1
  6493  6540  6541    1
  6494  6540  6542    1
  6495  6540  6590    1
  6496  6543  6544    1
  6497  6543  6545    1
  6498  6543  6546    1
  6499  6546  6547    1
  6500  6546  6548    1
  6501  6546  6549    1
  6502  6549  6550    1
  6503  6549  6551    1
  6504  6549  6552    1
  6505  6552  6553    1
  6506  6552  6554    1
  6507  6552  6555    1
  6508  6555  6556    1
  6509  6555  6557    1
  6510  6555  6558    1
  6511  6558  6559    1
  6512  6558  6560    1
  6513  6558  6561    1
  6514  6561  6562    1
  6515  6561  6563    2
  6516  6563  6564    1
  6517  6563  6565    1
  6518  6565  6566    1
  6519  6565  6567    1
  6520  6565  6568    1
  6521  6568  6569    1
  6522  6568  6570    1
  6523  6568  6571    1
  6524  6571  6572    1
  6525  6571  6573    1
  6526  6571  6574    1
  6527  6574  6575    1
  6528  6574  6576    1
  6529  6574  6577    1
  6530  6577  6578    1
  6531  6577  6579    1
  6532  6577  6580    1
  6533  6580  6581    1
  6534  6580  6582    1
  6535  6580  6583    1
  6536  6583  6584    1
  6537  6583  6585    1
  6538  6583  6586    1
  6539  6586  6587    1
  6540  6586  6588    1
  6541  6586  6589    1
  6542  6590  6591    1
  6543  6590  6592    1
  6544  6590  6593    1
  6545  6593  6594    1
  6546  6593  6595    1
  6547  6593  6596    1
  6548  6596  6597    1
  6549  6596  6598    1
  6550  6596  6599    1
  6551  6599  6600    1
  6552  6599  6601    1
  6553  6599  6602    1
  6554  6602  6603    1
  6555  6602  6604    1
  6556  6602  6605    1
  6557  6605  6606    1
  6558  6605  6607    1
  6559  6605  6608    1
  6560  6608  6609    1
  6561  6608  6610    1
  6562  6608  6611    1
  6563  6611  6612    1
  6564  6611  6613    1
  6565  6611  6614    1
  6566  6614  6615    1
  6567  6614  6616    1
  6568  6614  6617    1
  6569  6617  6618    1
  6570  6617  6619    1
  6571  6617  6620    1
  6572  6620  6621    1
  6573  6620  6622    1
  6574  6620  6623    1
  6575  6623  6624    1
  6576  6623  6625    1
  6577  6623  6626    1
  6578  6626  6627    1
  6579  6626  6628    1
  6580  6626  6629    1
  6581  6629  6630    1
  6582  6629  6631    1
  6583  6629  6632    1
  6584  6633  6634    1
  6585  6633  6637    1
  6586  6633  6641    1
  6587  6633  6645    1
  6588  6634  6635    1
  6589  6634  6636    1
  6590  6634  6649    1
  6591  6637  6638    1
  6592  6637  6639    1
  6593  6637  6640    1
  6594  6641  6642    1
  6595  6641  6643    1
  6596  6641  6644    1
  6597  6645  6646    1
  6598  6645  6647    1
  6599  6645  6648    1
  6600  6649  6650    1
  6601  6649  6651    1
  6602  6649  6655    1
  6603  6652  6653    2
  6604  6652  6654    1
  6605  6652  6655    1
  6606  6652  6656    1
  6607  6656  6657    1
  6608  6657  6658    1
  6609  6657  6659    1
  6610  6657  6660    1
  6611  6660  6661    1
  6612  6660  6662    1
  6613  6660  6668    1
  6614  6662  6663    1
  6615  6663  6664    2
  6616  6663  6665    1
  6617  6665  6666    1
  6618  6665  6667    1
  6619  6665  6677    1
  6620  6668  6669    1
  6621  6668  6670    1
  6622  6668  6671    1
  6623  6671  6672    1
  6624  6672  6673    2
  6625  6672  6674    1
  6626  6674  6675    1
  6627  6674  6676    1
  6628  6674  6724    1
  6629  6677  6678    1
  6630  6677  6679    1
  6631  6677  6680    1
  6632  6680  6681    1
  6633  6680  6682    1
  6634  6680  6683    1
  6635  6683  6684    1
  6636  6683  6685    1
  6637  6683  6686    1
  6638  6686  6687    1
  6639  6686  6688    1
  6640  6686  6689    1
  6641  6689  6690    1
  6642  6689  6691    1
  6643  6689  6692    1
  6644  6692  6693    1
  6645  6692  6694    1
  6646  6692  6695    1
  6647  6695  6696    1
  6648  6695  6697    2
  6649  6697  6698    1
  6650  6697  6699    1
  6651  6699  6700    1
  6652  6699  6701    1
  6653  6699  6702    1
  6654  6702  6703    1
  6655  6702  6704    1
  6656  6702  6705    1
  6657  6705  6706    1
  6658  6705  6707    1
  6659  6705  6708    1
  6660  6708  6709    1
  6661  6708  6710    1
  6662  6708  6711    1
  6663  6711  6712    1
  6664  6711  6713    1
  6665  6711  6714    1
  6666  6714  6715    1
  6667  6714  6716    1
  6668  6714  6717    1
  6669  6717  6718    1
  6670  6717  6719    1
  6671  6717  6720    1
  6672  6720  6721    1
  6673  6720  6722    1
  6674  6720  6723    1
  6675  6724  6725    1
  6676  6724  6726    1
  6677  6724  6727    1
  6678  6727  6728    1
  6679  6727  6729    1
  6680  6727  6730    1
  6681  6730  6731    1
  6682  6730  6732    1
  6683  6730  6733    1
  6684  6733  6734    1
  6685  6733  6735    1
  6686  6733  6736    1
  6687  6736  6737    1
  6688  6736  6738    1
  6689  6736  6739    1
  6690  6739  6740    1
  6691  6739  6741    1
  6692  6739  6742    1
  6693  6742  6743    1
  6694  6742  6744    1
  6695  6742  6745    1
  6696  6745  6746    1
  6697  6745  6747    1
  6698  6745  6748    1
  6699  6748  6749    1
  6700  6748  6750    1
  6701  6748  6751    1
  6702  6751  6752    1
  6703  6751  6753    1
  6704  6751  6754    1
  6705  6754  6755    1
  6706  6754  6756    1
  6707  6754  6757    1
  6708  6757  6758    1
  6709  6757  6759    1
  6710  6757  6760    1
  6711  6760  6761    1
  6712  6760  6762    1
  6713  6760  6763    1
  6714  6763  6764    1
  6715  6763  6765    1
  6716  6763  6766    1
  6717  6767  6768    1
  6718  6767  6771    1
  6719  6767  6775    1
  6720  6767  6779    1
  6721  6768  6769    1
  6722  6768  6770    1
  6723  6768  6783    1
  6724  6771  6772    1
  6725  6771  6773    1
  6726  6771  6774    1
  6727  6775  6776    1
  6728  6775  6777    1
  6729  6775  6778    1
  6730  6779  6780    1
  6731  6779  6781    1
  6732  6779  6782    1
  6733  6783  6784    1
  6734  6783  6785    1
  6735  6783  6789    1
  6736  6786  6787    2
  6737  6786  6788    1
  6738  6786  6789    1
  6739  6786  6790    1
  6740  6790  6791    1
  6741  6791  6792    1
  6742  6791  6793    1
  6743  6791  6794    1
  6744  6794  6795    1
  6745  6794  6796    1
  6746  6794  6802    1
  6747  6796  6797    1
  6748  6797  6798    2
  6749  6797  6799    1
  6750  6799  6800    1
  6751  6799  6801    1
  6752  6799  6811    1
  6753  6802  6803    1
  6754  6802  6804    1
  6755  6802  6805    1
  6756  6805  6806    1
  6757  6806  6807    2
  6758  6806  6808    1
  6759  6808  6809    1
  6760  6808  6810    1
  6761  6808  6858    1
  6762  6811  6812    1
  6763  6811  6813    1
  6764  6811  6814    1
  6765  6814  6815    1
  6766  6814  6816    1
  6767  6814  6817    1
  6768  6817  6818    1
  6769  6817  6819    1
  6770  6817  6820    1
  6771  6820  6821    1
  6772  6820  6822    1
  6773  6820  6823    1
  6774  6823  6824    1
  6775  6823  6825    1
  6776  6823  6826    1
  6777  6826  6827    1
  6778  6826  6828    1
  6779  6826  6829    1
  6780  6829  6830    1
  6781  6829  6831    2
  6782  6831  6832    1
  6783  6831  6833    1
  6784  6833  6834    1
  6785  6833  6835    1
  6786  6833  6836    1
  6787  6836  6837    1
  6788  6836  6838    1
  6789  6836  6839    1
  6790  6839  6840    1
  6791  6839  6841    1
  6792  6839  6842    1
  6793  6842  6843    1
  6794  6842  6844    1
  6795  6842  6845    1
  6796  6845  6846    1
  6797  6845  6847    1
  6798  6845  6848    1
  6799  6848  6849    1
  6800  6848  6850    1
  6801  6848  6851    1
  6802  6851  6852    1
  6803  6851  6853    1
  6804  6851  6854    1
  6805  6854  6855    1
  6806  6854  6856    1
  6807  6854  6857    1
  6808  6858  6859    1
  6809  6858  6860    1
  6810  6858  6861    1
  6811  6861  6862    1
  6812  6861  6863    1
  6813  6861  6864    1
  6814  6864  6865    1
  6815  6864  6866    1
  6816  6864  6867    1
  6817  6867  6868    1
  6818  6867  6869    1
  6819  6867  6870    1
  6820  6870  6871    1
  6821  6870  6872    1
  6822  6870  6873    1
  6823  6873  6874    1
  6824  6873  6875    1
  6825  6873  6876    1
  6826  6876  6877    1
  6827  6876  6878    1
  6828  6876  6879    1
  6829  6879  6880    1
  6830  6879  6881    1
  6831  6879  6882    1
  6832  6882  6883    1
  6833  6882  6884    1
  6834  6882  6885    1
  6835  6885  6886    1
  6836  6885  6887    1
  6837  6885  6888    1
  6838  6888  6889    1
  6839  6888  6890    1
  6840  6888  6891    1
  6841  6891  6892    1
  6842  6891  6893    1
  6843  6891  6894    1
  6844  6894  6895    1
  6845  6894  6896    1
  6846  6894  6897    1
  6847  6897  6898    1
  6848  6897  6899    1
  6849  6897  6900    1
  6850  6901  6902    1
  6851  6901  6905    1
  6852  6901  6909    1
  6853  6901  6913    1
  6854  6902  6903    1
  6855  6902  6904    1
  6856  6902  6917    1
  6857  6905  6906    1
  6858  6905  6907    1
  6859  6905  6908    1
  6860  6909  6910    1
  6861  6909  6911    1
  6862  6909  6912    1
  6863  6913  6914    1
  6864  6913  6915    1
  6865  6913  6916    1
  6866  6917  6918    1
  6867  6917  6919    1
  6868  6917  6923    1
  6869  6920  6921    2
  6870  6920  6922    1
  6871  6920  6923    1
  6872  6920  6924    1
  6873  6924  6925    1
  6874  6925  6926    1
  6875  6925  6927    1
  6876  6925  6928    1
  6877  6928  6929    1
  6878  6928  6930    1
  6879  6928  6936    1
  6880  6930  6931    1
  6881  6931  6932    2
  6882  6931  6933    1
  6883  6933  6934    1
  6884  6933  6935    1
  6885  6933  6945    1
  6886  6936  6937    1
  6887  6936  6938    1
  6888  6936  6939    1
  6889  6939  6940    1
  6890  6940  6941    2
  6891  6940  6942    1
  6892  6942  6943    1
  6893  6942  6944    1
  6894  6942  6992    1
  6895  6945  6946    1
  6896  6945  6947    1
  6897  6945  6948    1
  6898  6948  6949    1
  6899  6948  6950    1
  6900  6948  6951    1
  6901  6951  6952    1
  6902  6951  6953    1
  6903  6951  6954    1
  6904  6954  6955    1
  6905  6954  6956    1
  6906  6954  6957    1
  6907  6957  6958    1
  6908  6957  6959    1
  6909  6957  6960    1
  6910  6960  6961    1
  6911  6960  6962    1
  6912  6960  6963    1
  6913  6963  6964    1
  6914  6963  6965    2
  6915  6965  6966    1
  6916  6965  6967    1
  6917  6967  6968    1
  6918  6967  6969    1
  6919  6967  6970    1
  6920  6970  6971    1
  6921  6970  6972    1
  6922  6970  6973    1
  6923  6973  6974    1
  6924  6973  6975    1
  6925  6973  6976    1
  6926  6976  6977    1
  6927  6976  6978    1
  6928  6976  6979    1
  6929  6979  6980    1
  6930  6979  6981    1
  6931  6979  6982    1
  6932  6982  6983    1
  6933  6982  6984    1
  6934  6982  6985    1
  6935  6985  6986    1
  6936  6985  6987    1
  6937  6985  6988    1
  6938  6988  6989    1
  6939  6988  6990    1
  6940  6988  6991    1
  6941  6992  6993    1
  6942  6992  6994    1
  6943  6992  6995    1
  6944  6995  6996    1
  6945  6995  6997    1
  6946  6995  6998    1
  6947  6998  6999    1
  6948  6998  7000    1
  6949  6998  7001    1
  6950  7001  7002    1
  6951  7001  7003    1
  6952  7001  7004    1
  6953  7004  7005    1
  6954  7004  7006    1
  6955  7004  7007    1
  6956  7007  7008    1
  6957  7007  7009    1
  6958  7007  7010    1
  6959  7010  7011    1
  6960  7010  7012    1
  6961  7010  7013    1
  6962  7013  7014    1
  6963  7013  7015    1
  6964  7013  7016    1
  6965  7016  7017    1
  6966  7016  7018    1
  6967  7016  7019    1
  6968  7019  7020    1
  6969  7019  7021    1
  6970  7019  7022    1
  6971  7022  7023    1
  6972  7022  7024    1
  6973  7022  7025    1
  6974  7025  7026    1
  6975  7025  7027    1
  6976  7025  7028    1
  6977  7028  7029    1
  6978  7028  7030    1
  6979  7028  7031    1
  6980  7031  7032    1
  6981  7031  7033    1
  6982  7031  7034    1
  6983  7035  7036    1
  6984  7035  7039    1
  6985  7035  7043    1
  6986  7035  7047    1
  6987  7036  7037    1
  6988  7036  7038    1
  6989  7036  7051    1
  6990  7039  7040    1
  6991  7039  7041    1
  6992  7039  7042    1
  6993  7043  7044    1
  6994  7043  7045    1
  6995  7043  7046    1
  6996  7047  7048    1
  6997  7047  7049    1
  6998  7047  7050    1
  6999  7051  7052    1
  7000  7051  7053    1
  7001  7051  7057    1
  7002  7054  7055    2
  7003  7054  7056    1
  7004  7054  7057    1
  7005  7054  7058    1
  7006  7058  7059    1
  7007  7059  7060    1
  7008  7059  7061    1
  7009  7059  7062    1
  7010  7062  7063    1
  7011  7062  7064    1
  7012  7062  7070    1
  7013  7064  7065    1
  7014  7065  7066    2
  7015  7065  7067    1
  7016  7067  7068    1
  7017  7067  7069    1
  7018  7067  7079    1
  7019  7070  7071    1
  7020  7070  7072    1
  7021  7070  7073    1
  7022  7073  7074    1
  7023  7074  7075    2
  7024  7074  7076    1
  7025  7076  7077    1
  7026  7076  7078    1
  7027  7076  7126    1
  7028  7079  7080    1
  7029  7079  7081    1
  7030  7079  7082    1
  7031  7082  7083    1
  7032  7082  7084    1
  7033  7082  7085    1
  7034  7085  7086    1
  7035  7085  7087    1
  7036  7085  7088    1
  7037  7088  7089    1
  7038  7088  7090    1
  7039  7088  7091    1
  7040  7091  7092    1
  7041  7091  7093    1
  7042  7091  7094    1
  7043  7094  7095    1
  7044  7094  7096    1
  7045  7094  7097    1
  7046  7097  7098    1
  7047  7097  7099    2
  7048  7099  7100    1
  7049  7099  7101    1
  7050  7101  7102    1
  7051  7101  7103    1
  7052  7101  7104    1
  7053  7104  7105    1
  7054  7104  7106    1
  7055  7104  7107    1
  7056  7107  7108    1
  7057  7107  7109    1
  7058  7107  7110    1
  7059  7110  7111    1
  7060  7110  7112    1
  7061  7110  7113    1
  7062  7113  7114    1
  7063  7113  7115    1
  7064  7113  7116    1
  7065  7116  7117    1
  7066  7116  7118    1
  7067  7116  7119    1
  7068  7119  7120    1
  7069  7119  7121    1
  7070  7119  7122    1
  7071  7122  7123    1
  7072  7122  7124    1
  7073  7122  7125    1
  7074  7126  7127    1
  7075  7126  7128    1
  7076  7126  7129    1
  7077  7129  7130    1
  7078  7129  7131    1
  7079  7129  7132    1
  7080  7132  7133    1
  7081  7132  7134    1
  7082  7132  7135    1
  7083  7135  7136    1
  7084  7135  7137    1
  7085  7135  7138    1
  7086  7138  7139    1
  7087  7138  7140    1
  7088  7138  7141    1
  7089  7141  7142    1
  7090  7141  7143    1
  7091  7141  7144    1
  7092  7144  7145    1
  7093  7144  7146    1
  7094  7144  7147    1
  7095  7147  7148    1
  7096  7147  7149    1
  7097  7147  7150    1
  7098  7150  7151    1
  7099  7150  7152    1
  7100  7150  7153    1
  7101  7153  7154    1
  7102  7153  7155    1
  7103  7153  7156    1
  7104  7156  7157    1
  7105  7156  7158    1
  7106  7156  7159    1
  7107  7159  7160    1
  7108  7159  7161    1
  7109  7159  7162    1
  7110  7162  7163    1
  7111  7162  7164    1
  7112  7162  7165    1
  7113  7165  7166    1
  7114  7165  7167    1
  7115  7165  7168    1
  7116  7169  7170    1
  7117  7169  7173    1
  7118  7169  7177    1
  7119  7169  7181    1
  7120  7170  7171    1
  7121  7170  7172    1
  7122  7170  7185    1
  7123  7173  7174    1
  7124  7173  7175    1
  7125  7173  7176    1
  7126  7177  7178    1
  7127  7177  7179    1
  7128  7177  7180    1
  7129  7181  7182    1
  7130  7181  7183    1
  7131  7181  7184    1
  7132  7185  7186    1
  7133  7185  7187    1
  7134  7185  7191    1
  7135  7188  7189    2
  7136  7188  7190    1
  7137  7188  7191    1
  7138  7188  7192    1
  7139  7192  7193    1
  7140  7193  7194    1
  7141  7193  7195    1
  7142  7193  7196    1
  7143  7196  7197    1
  7144  7196  7198    1
  7145  7196  7204    1
  7146  7198  7199    1
  7147  7199  7200    2
  7148  7199  7201    1
  7149  7201  7202    1
  7150  7201  7203    1
  7151  7201  7213    1
  7152  7204  7205    1
  7153  7204  7206    1
  7154  7204  7207    1
  7155  7207  7208    1
  7156  7208  7209    2
  7157  7208  7210    1
  7158  7210  7211    1
  7159  7210  7212    1
  7160  7210  7260    1
  7161  7213  7214    1
  7162  7213  7215    1
  7163  7213  7216    1
  7164  7216  7217    1
  7165  7216  7218    1
  7166  7216  7219    1
  7167  7219  7220    1
  7168  7219  7221    1
  7169  7219  7222    1
  7170  7222  7223    1
  7171  7222  7224    1
  7172  7222  7225    1
  7173  7225  7226    1
  7174  7225  7227    1
  7175  7225  7228    1
  7176  7228  7229    1
  7177  7228  7230    1
  7178  7228  7231    1
  7179  7231  7232    1
  7180  7231  7233    2
  7181  7233  7234    1
  7182  7233  7235    1
  7183  7235  7236    1
  7184  7235  7237    1
  7185  7235  7238    1
  7186  7238  7239    1
  7187  7238  7240    1
  7188  7238  7241    1
  7189  7241  7242    1
  7190  7241  7243    1
  7191  7241  7244    1
  7192  7244  7245    1
  7193  7244  7246    1
  7194  7244  7247    1
  7195  7247  7248    1
  7196  7247  7249    1
  7197  7247  7250    1
  7198  7250  7251    1
  7199  7250  7252    1
  7200  7250  7253    1
  7201  7253  7254    1
  7202  7253  7255    1
  7203  7253  7256    1
  7204  7256  7257    1
  7205  7256  7258    1
  7206  7256  7259    1
  7207  7260  7261    1
  7208  7260  7262    1
  7209  7260  7263    1
  7210  7263  7264    1
  7211  7263  7265    1
  7212  7263  7266    1
  7213  7266  7267    1
  7214  7266  7268    1
  7215  7266  7269    1
  7216  7269  7270    1
  7217  7269  7271    1
  7218  7269  7272    1
  7219  7272  7273    1
  7220  7272  7274    1
  7221  7272  7275    1
  7222  7275  7276    1
  7223  7275  7277    1
  7224  7275  7278    1
  7225  7278  7279    1
  7226  7278  7280    1
  7227  7278  7281    1
  7228  7281  7282    1
  7229  7281  7283    1
  7230  7281  7284    1
  7231  7284  7285    1
  7232  7284  7286    1
  7233  7284  7287    1
  7234  7287  7288    1
  7235  7287  7289    1
  7236  7287  7290    1
  7237  7290  7291    1
  7238  7290  7292    1
  7239  7290  7293    1
  7240  7293  7294    1
  7241  7293  7295    1
  7242  7293  7296    1
  7243  7296  7297    1
  7244  7296  7298    1
  7245  7296  7299    1
  7246  7299  7300    1
  7247  7299  7301    1
  7248  7299  7302    1
  7249  7303  7304    1
  7250  7303  7307    1
  7251  7303  7311    1
  7252  7303  7315    1
  7253  7304  7305    1
  7254  7304  7306    1
  7255  7304  7319    1
  7256  7307  7308    1
  7257  7307  7309    1
  7258  7307  7310    1
  7259  7311  7312    1
  7260  7311  7313    1
  7261  7311  7314    1
  7262  7315  7316    1
  7263  7315  7317    1
  7264  7315  7318    1
  7265  7319  7320    1
  7266  7319  7321    1
  7267  7319  7325    1
  7268  7322  7323    2
  7269  7322  7324    1
  7270  7322  7325    1
  7271  7322  7326    1
  7272  7326  7327    1
  7273  7327  7328    1
  7274  7327  7329    1
  7275  7327  7330    1
  7276  7330  7331    1
  7277  7330  7332    1
  7278  7330  7338    1
  7279  7332  7333    1
  7280  7333  7334    2
  7281  7333  7335    1
  7282  7335  7336    1
  7283  7335  7337    1
  7284  7335  7347    1
  7285  7338  7339    1
  7286  7338  7340    1
  7287  7338  7341    1
  7288  7341  7342    1
  7289  7342  7343    2
  7290  7342  7344    1
  7291  7344  7345    1
  7292  7344  7346    1
  7293  7344  7394    1
  7294  7347  7348    1
  7295  7347  7349    1
  7296  7347  7350    1
  7297  7350  7351    1
  7298  7350  7352    1
  7299  7350  7353    1
  7300  7353  7354    1
  7301  7353  7355    1
  7302  7353  7356    1
  7303  7356  7357    1
  7304  7356  7358    1
  7305  7356  7359    1
  7306  7359  7360    1
  7307  7359  7361    1
  7308  7359  7362    1
  7309  7362  7363    1
  7310  7362  7364    1
  7311  7362  7365    1
  7312  7365  7366    1
  7313  7365  7367    2
  7314  7367  7368    1
  7315  7367  7369    1
  7316  7369  7370    1
  7317  7369  7371    1
  7318  7369  7372    1
  7319  7372  7373    1
  7320  7372  7374    1
  7321  7372  7375    1
  7322  7375  7376    1
  7323  7375  7377    1
  7324  7375  7378    1
  7325  7378  7379    1
  7326  7378  7380    1
  7327  7378  7381    1
  7328  7381  7382    1
  7329  7381  7383    1
  7330  7381  7384    1
  7331  7384  7385    1
  7332  7384  7386    1
  7333  7384  7387    1
  7334  7387  7388    1
  7335  7387  7389    1
  7336  7387  7390    1
  7337  7390  7391    1
  7338  7390  7392    1
  7339  7390  7393    1
  7340  7394  7395    1
  7341  7394  7396    1
  7342  7394  7397    1
  7343  7397  7398    1
  7344  7397  7399    1
  7345  7397  7400    1
  7346  7400  7401    1
  7347  7400  7402    1
  7348  7400  7403    1
  7349  7403  7404    1
  7350  7403  7405    1
  7351  7403  7406    1
  7352  7406  7407    1
  7353  7406  7408    1
  7354  7406  7409    1
  7355  7409  7410    1
  7356  7409  7411    1
  7357  7409  7412    1
  7358  7412  7413    1
  7359  7412  7414    1
  7360  7412  7415    1
  7361  7415  7416    1
  7362  7415  7417    1
  7363  7415  7418    1
  7364  7418  7419    1
  7365  7418  7420    1
  7366  7418  7421    1
  7367  7421  7422    1
  7368  7421  7423    1
  7369  7421  7424    1
  7370  7424  7425    1
  7371  7424  7426    1
  7372  7424  7427    1
  7373  7427  7428    1
  7374  7427  7429    1
  7375  7427  7430    1
  7376  7430  7431    1
  7377  7430  7432    1
  7378  7430  7433    1
  7379  7433  7434    1
  7380  7433  7435    1
  7381  7433  7436    1
  7382  7437  7438    1
  7383  7437  7441    1
  7384  7437  7445    1
  7385  7437  7449    1
  7386  7438  7439    1
  7387  7438  7440    1
  7388  7438  7453    1
  7389  7441  7442    1
  7390  7441  7443    1
  7391  7441  7444    1
  7392  7445  7446    1
  7393  7445  7447    1
  7394  7445  7448    1
  7395  7449  7450    1
  7396  7449  7451    1
  7397  7449  7452    1
  7398  7453  7454    1
  7399  7453  7455    1
  7400  7453  7459    1
  7401  7456  7457    2
  7402  7456  7458    1
  7403  7456  7459    1
  7404  7456  7460    1
  7405  7460  7461    1
  7406  7461  7462    1
  7407  7461  7463    1
  7408  7461  7464    1
  7409  7464  7465    1
  7410  7464  7466    1
  7411  7464  7472    1
  7412  7466  7467    1
  7413  7467  7468    2
  7414  7467  7469    1
  7415  7469  7470    1
  7416  7469  7471    1
  7417  7469  7481    1
  7418  7472  7473    1
  7419  7472  7474    1
  7420  7472  7475    1
  7421  7475  7476    1
  7422  7476  7477    2
  7423  7476  7478    1
  7424  7478  7479    1
  7425  7478  7480    1
  7426  7478  7528    1
  7427  7481  7482    1
  7428  7481  7483    1
  7429  7481  7484    1
  7430  7484  7485    1
  7431  7484  7486    1
  7432  7484  7487    1
  7433  7487  7488    1
  7434  7487  7489    1
  7435  7487  7490    1
  7436  7490  7491    1
  7437  7490  7492    1
  7438  7490  7493    1
  7439  7493  7494    1
  7440  7493  7495    1
  7441  7493  7496    1
  7442  7496  7497    1
  7443  7496  7498    1
  7444  7496  7499    1
  7445  7499  7500    1
  7446  7499  7501    2
  7447  7501  7502    1
  7448  7501  7503    1
  7449  7503  7504    1
  7450  7503  7505    1
  7451  7503  7506    1
  7452  7506  7507    1
  7453  7506  7508    1
  7454  7506  7509    1
  7455  7509  7510    1
  7456  7509  7511    1
  7457  7509  7512    1
  7458  7512  7513    1
  7459  7512  7514    1
  7460  7512  7515    1
  7461  7515  7516    1
  7462  7515  7517    1
  7463  7515  7518    1
  7464  7518  7519    1
  7465  7518  7520    1
  7466  7518  7521    1
  7467  7521  7522    1
  7468  7521  7523    1
  7469  7521  7524    1
  7470  7524  7525    1
  7471  7524  7526    1
  7472  7524  7527    1
  7473  7528  7529    1
  7474  7528  7530    1
  7475  7528  7531    1
  7476  7531  7532    1
  7477  7531  7533    1
  7478  7531  7534    1
  7479  7534  7535    1
  7480  7534  7536    1
  7481  7534  7537    1
  7482  7537  7538    1
  7483  7537  7539    1
  7484  7537  7540    1
  7485  7540  7541    1
  7486  7540  7542    1
  7487  7540  7543    1
  7488  7543  7544    1
  7489  7543  7545    1
  7490  7543  7546    1
  7491  7546  7547    1
  7492  7546  7548    1
  7493  7546  7549    1
  7494  7549  7550    1
  7495  7549  7551    1
  7496  7549  7552    1
  7497  7552  7553    1
  7498  7552  7554    1
  7499  7552  7555    1
  7500  7555  7556    1
  7501  7555  7557    1
  7502  7555  7558    1
  7503  7558  7559    1
  7504  7558  7560    1
  7505  7558  7561    1
  7506  7561  7562    1
  7507  7561  7563    1
  7508  7561  7564    1
  7509  7564  7565    1
  7510  7564  7566    1
  7511  7564  7567    1
  7512  7567  7568    1
  7513  7567  7569    1
  7514  7567  7570    1
  7515  7571  7572    1
  7516  7571  7575    1
  7517  7571  7579    1
  7518  7571  7583    1
  7519  7572  7573    1
  7520  7572  7574    1
  7521  7572  7587    1
  7522  7575  7576    1
  7523  7575  7577    1
  7524  7575  7578    1
  7525  7579  7580    1
  7526  7579  7581    1
  7527  7579  7582    1
  7528  7583  7584    1
  7529  7583  7585    1
  7530  7583  7586    1
  7531  7587  7588    1
  7532  7587  7589    1
  7533  7587  7593    1
  7534  7590  7591    2
  7535  7590  7592    1
  7536  7590  7593    1
  7537  7590  7594    1
  7538  7594  7595    1
  7539  7595  7596    1
  7540  7595  7597    1
  7541  7595  7598    1
  7542  7598  7599    1
  7543  7598  7600    1
  7544  7598  7606    1
  7545  7600  7601    1
  7546  7601  7602    2
  7547  7601  7603    1
  7548  7603  7604    1
  7549  7603  7605    1
  7550  7603  7615    1
  7551  7606  7607    1
  7552  7606  7608    1
  7553  7606  7609    1
  7554  7609  7610    1
  7555  7610  7611    2
  7556  7610  7612    1
  7557  7612  7613    1
  7558  7612  7614    1
  7559  7612  7662    1
  7560  7615  7616    1
  7561  7615  7617    1
  7562  7615  7618    1
  7563  7618  7619    1
  7564  7618  7620    1
  7565  7618  7621    1
  7566  7621  7622    1
  7567  7621  7623    1
  7568  7621  7624    1
  7569  7624  7625    1
  7570  7624  7626    1
  7571  7624  7627    1
  7572  7627  7628    1
  7573  7627  7629    1
  7574  7627  7630    1
  7575  7630  7631    1
  7576  7630  7632    1
  7577  7630  7633    1
  7578  7633  7634    1
  7579  7633  7635    2
  7580  7635  7636    1
  7581  7635  7637    1
  7582  7637  7638    1
  7583  7637  7639    1
  7584  7637  7640    1
  7585  7640  7641    1
  7586  7640  7642    1
  7587  7640  7643    1
  7588  7643  7644    1
  7589  7643  7645    1
  7590  7643  7646    1
  7591  7646  7647    1
  7592  7646  7648    1
  7593  7646  7649    1
  7594  7649  7650    1
  7595  7649  7651    1
  7596  7649  7652    1
  7597  7652  7653    1
  7598  7652  7654    1
  7599  7652  7655    1
  7600  7655  7656    1
  7601  7655  7657    1
  7602  7655  7658    1
  7603  7658  7659    1
  7604  7658  7660    1
  7605  7658  7661    1
  7606  7662  7663    1
  7607  7662  7664    1
  7608  7662  7665    1
  7609  7665  7666    1
  7610  7665  7667    1
  7611  7665  7668    1
  7612  7668  7669    1
  7613  7668  7670    1
  7614  7668  7671    1
  7615  7671  7672    1
  7616  7671  7673    1
  7617  7671  7674    1
  7618  7674  7675    1
  7619  7674  7676    1
  7620  7674  7677    1
  7621  7677  7678    1
  7622  7677  7679    1
  7623  7677  7680    1
  7624  7680  7681    1
  7625  7680  7682    1
  7626  7680  7683    1
  7627  7683  7684    1
  7628  7683  7685    1
  7629  7683  7686    1
  7630  7686  7687    1
  7631  7686  7688    1
  7632  7686  7689    1
  7633  7689  7690    1
  7634  7689  7691    1
  7635  7689  7692    1
  7636  7692  7693    1
  7637  7692  7694    1
  7638  7692  7695    1
  7639  7695  7696    1
  7640  7695  7697    1
  7641  7695  7698    1
  7642  7698  7699    1
  7643  7698  7700    1
  7644  7698  7701    1
  7645  7701  7702    1
  7646  7701  7703    1
  7647  7701  7704    1
  7648  7705  7706    1
  7649  7705  7709    1
  7650  7705  7713    1
  7651  7705  7717    1
  7652  7706  7707    1
  7653  7706  7708    1
  7654  7706  7721    1
  7655  7709  7710    1
  7656  7709  7711    1
  7657  7709  7712    1
  7658  7713  7714    1
  7659  7713  7715    1
  7660  7713  7716    1
  7661  7717  7718    1
  7662  7717  7719    1
  7663  7717  7720    1
  7664  7721  7722    1
  7665  7721  7723    1
  7666  7721  7727    1
  7667  7724  7725    2
  7668  7724  7726    1
  7669  7724  7727    1
  7670  7724  7728    1
  7671  7728  7729    1
  7672  7729  7730    1
  7673  7729  7731    1
  7674  7729  7732    1
  7675  7732  7733    1
  7676  7732  7734    1
  7677  7732  7740    1
  7678  7734  7735    1
  7679  7735  7736    2
  7680  7735  7737    1
  7681  7737  7738    1
  7682  7737  7739    1
  7683  7737  7749    1
  7684  7740  7741    1
  7685  7740  7742    1
  7686  7740  7743    1
  7687  7743  7744    1
  7688  7744  7745    2
  7689  7744  7746    1
  7690  7746  7747    1
  7691  7746  7748    1
  7692  7746  7796    1
  7693  7749  7750    1
  7694  7749  7751    1
  7695  7749  7752    1
  7696  7752  7753    1
  7697  7752  7754    1
  7698  7752  7755    1
  7699  7755  7756    1
  7700  7755  7757    1
  7701  7755  7758    1
  7702  7758  7759    1
  7703  7758  7760    1
  7704  7758  7761    1
  7705  7761  7762    1
  7706  7761  7763    1
  7707  7761  7764    1
  7708  7764  7765    1
  7709  7764  7766    1
  7710  7764  7767    1
  7711  7767  7768    1
  7712  7767  7769    2
  7713  7769  7770    1
  7714  7769  7771    1
  7715  7771  7772    1
  7716  7771  7773    1
  7717  7771  7774    1
  7718  7774  7775    1
  7719  7774  7776    1
  7720  7774  7777    1
  7721  7777  7778    1
  7722  7777  7779    1
  7723  7777  7780    1
  7724  7780  7781    1
  7725  7780  7782    1
  7726  7780  7783    1
  7727  7783  7784    1
  7728  7783  7785    1
  7729  7783  7786    1
  7730  7786  7787    1
  7731  7786  7788    1
  7732  7786  7789    1
  7733  7789  7790    1
  7734  7789  7791    1
  7735  7789  7792    1
  7736  7792  7793    1
  7737  7792  7794    1
  7738  7792  7795    1
  7739  7796  7797    1
  7740  7796  7798    1
  7741  7796  7799    1
  7742  7799  7800    1
  7743  7799  7801    1
  7744  7799  7802    1
  7745  7802  7803    1
  7746  7802  7804    1
  7747  7802  7805    1
  7748  7805  7806    1
  7749  7805  7807    1
  7750  7805  7808    1
  7751  7808  7809    1
  7752  7808  7810    1
  7753  7808  7811    1
  7754  7811  7812    1
  7755  7811  7813    1
  7756  7811  7814    1
  7757  7814  7815    1
  7758  7814  7816    1
  7759  7814  7817    1
  7760  7817  7818    1
  7761  7817  7819    1
  7762  7817  7820    1
  7763  7820  7821    1
  7764  7820  7822    1
  7765  7820  7823    1
  7766  7823  7824    1
  7767  7823  7825    1
  7768  7823  7826    1
  7769  7826  7827    1
  7770  7826  7828    1
  7771  7826  7829    1
  7772  7829  7830    1
  7773  7829  7831    1
  7774  7829  7832    1
  7775  7832  7833    1
  7776  7832  7834    1
  7777  7832  7835    1
  7778  7835  7836    1
  7779  7835  7837    1
  7780  7835  7838    1
  7781  7839  7840    1
  7782  7839  7843    1
  7783  7839  7847    1
  7784  7839  7851    1
  7785  7840  7841    1
  7786  7840  7842    1
  7787  7840  7855    1
  7788  7843  7844    1
  7789  7843  7845    1
  7790  7843  7846    1
  7791  7847  7848    1
  7792  7847  7849    1
  7793  7847  7850    1
  7794  7851  7852    1
  7795  7851  7853    1
  7796  7851  7854    1
  7797  7855  7856    1
  7798  7855  7857    1
  7799  7855  7861    1
  7800  7858  7859    2
  7801  7858  7860    1
  7802  7858  7861    1
  7803  7858  7862    1
  7804  7862  7863    1
  7805  7863  7864    1
  7806  7863  7865    1
  7807  7863  7866    1
  7808  7866  7867    1
  7809  7866  7868    1
  7810  7866  7874    1
  7811  7868  7869    1
  7812  7869  7870    2
  7813  7869  7871    1
  7814  7871  7872    1
  7815  7871  7873    1
  7816  7871  7883    1
  7817  7874  7875    1
  7818  7874  7876    1
  7819  7874  7877    1
  7820  7877  7878    1
  7821  7878  7879    2
  7822  7878  7880    1
  7823  7880  7881    1
  7824  7880  7882    1
  7825  7880  7930    1
  7826  7883  7884    1
  7827  7883  7885    1
  7828  7883  7886    1
  7829  7886  7887    1
  7830  7886  7888    1
  7831  7886  7889    1
  7832  7889  7890    1
  7833  7889  7891    1
  7834  7889  7892    1
  7835  7892  7893    1
  7836  7892  7894    1
  7837  7892  7895    1
  7838  7895  7896    1
  7839  7895  7897    1
  7840  7895  7898    1
  7841  7898  7899    1
  7842  7898  7900    1
  7843  7898  7901    1
  7844  7901  7902    1
  7845  7901  7903    2
  7846  7903  7904    1
  7847  7903  7905    1
  7848  7905  7906    1
  7849  7905  7907    1
  7850  7905  7908    1
  7851  7908  7909    1
  7852  7908  7910    1
  7853  7908  7911    1
  7854  7911  7912    1
  7855  7911  7913    1
  7856  7911  7914    1
  7857  7914  7915    1
  7858  7914  7916    1
  7859  7914  7917    1
  7860  7917  7918    1
  7861  7917  7919    1
  7862  7917  7920    1
  7863  7920  7921    1
  7864  7920  7922    1
  7865  7920  7923    1
  7866  7923  7924    1
  7867  7923  7925    1
  7868  7923  7926    1
  7869  7926  7927    1
  7870  7926  7928    1
  7871  7926  7929    1
  7872  7930  7931    1
  7873  7930  7932    1
  7874  7930  7933    1
  7875  7933  7934    1
  7876  7933  7935    1
  7877  7933  7936    1
  7878  7936  7937    1
  7879  7936  7938    1
  7880  7936  7939    1
  7881  7939  7940    1
  7882  7939  7941    1
  7883  7939  7942    1
  7884  7942  7943    1
  7885  7942  7944    1
  7886  7942  7945    1
  7887  7945  7946    1
  7888  7945  7947    1
  7889  7945  7948    1
  7890  7948  7949    1
  7891  7948  7950    1
  7892  7948  7951    1
  7893  7951  7952    1
  7894  7951  7953    1
  7895  7951  7954    1
  7896  7954  7955    1
  7897  7954  7956    1
  7898  7954  7957    1
  7899  7957  7958    1
  7900  7957  7959    1
  7901  7957  7960    1
  7902  7960  7961    1
  7903  7960  7962    1
  7904  7960  7963    1
  7905  7963  7964    1
  7906  7963  7965    1
  7907  7963  7966    1
  7908  7966  7967    1
  7909  7966  7968    1
  7910  7966  7969    1
  7911  7969  7970    1
  7912  7969  7971    1
  7913  7969  7972    1
  7914  7973  7974    1
  7915  7973  7977    1
  7916  7973  7981    1
  7917  7973  7985    1
  7918  7974  7975    1
  7919  7974  7976    1
  7920  7974  7989    1
  7921  7977  7978    1
  7922  7977  7979    1
  7923  7977  7980    1
  7924  7981  7982    1
  7925  7981  7983    1
  7926  7981  7984    1
  7927  7985  7986    1
  7928  7985  7987    1
  7929  7985  7988    1
  7930  7989  7990    1
  7931  7989  7991    1
  7932  7989  7995    1
  7933  7992  7993    2
  7934  7992  7994    1
  7935  7992  7995    1
  7936  7992  7996    1
  7937  7996  7997    1
  7938  7997  7998    1
  7939  7997  7999    1
  7940  7997  8000    1
  7941  8000  8001    1
  7942  8000  8002    1
  7943  8000  8008    1
  7944  8002  8003    1
  7945  8003  8004    2
  7946  8003  8005    1
  7947  8005  8006    1
  7948  8005  8007    1
  7949  8005  8017    1
  7950  8008  8009    1
  7951  8008  8010    1
  7952  8008  8011    1
  7953  8011  8012    1
  7954  8012  8013    2
  7955  8012  8014    1
  7956  8014  8015    1
  7957  8014  8016    1
  7958  8014  8064    1
  7959  8017  8018    1
  7960  8017  8019    1
  7961  8017  8020    1
  7962  8020  8021    1
  7963  8020  8022    1
  7964  8020  8023    1
  7965  8023  8024    1
  7966  8023  8025    1
  7967  8023  8026    1
  7968  8026  8027    1
  7969  8026  8028    1
  7970  8026  8029    1
  7971  8029  8030    1
  7972  8029  8031    1
  7973  8029  8032    1
  7974  8032  8033    1
  7975  8032  8034    1
  7976  8032  8035    1
  7977  8035  8036    1
  7978  8035  8037    2
  7979  8037  8038    1
  7980  8037  8039    1
  7981  8039  8040    1
  7982  8039  8041    1
  7983  8039  8042    1
  7984  8042  8043    1
  7985  8042  8044    1
  7986  8042  8045    1
  7987  8045  8046    1
  7988  8045  8047    1
  7989  8045  8048    1
  7990  8048  8049    1
  7991  8048  8050    1
  7992  8048  8051    1
  7993  8051  8052    1
  7994  8051  8053    1
  7995  8051  8054    1
  7996  8054  8055    1
  7997  8054  8056    1
  7998  8054  8057    1
  7999  8057  8058    1
  8000  8057  8059    1
  8001  8057  8060    1
  8002  8060  8061    1
  8003  8060  8062    1
  8004  8060  8063    1
  8005  8064  8065    1
  8006  8064  8066    1
  8007  8064  8067    1
  8008  8067  8068    1
  8009  8067  8069    1
  8010  8067  8070    1
  8011  8070  8071    1
  8012  8070  8072    1
  8013  8070  8073    1
  8014  8073  8074    1
  8015  8073  8075    1
  8016  8073  8076    1
  8017  8076  8077    1
  8018  8076  8078    1
  8019  8076  8079    1
  8020  8079  8080    1
  8021  8079  8081    1
  8022  8079  8082    1
  8023  8082  8083    1
  8024  8082  8084    1
  8025  8082  8085    1
  8026  8085  8086    1
  8027  8085  8087    1
  8028  8085  8088    1
  8029  8088  8089    1
  8030  8088  8090    1
  8031  8088  8091    1
  8032  8091  8092    1
  8033  8091  8093    1
  8034  8091  8094    1
  8035  8094  8095    1
  8036  8094  8096    1
  8037  8094  8097    1
  8038  8097  8098    1
  8039  8097  8099    1
  8040  8097  8100    1
  8041  8100  8101    1
  8042  8100  8102    1
  8043  8100  8103    1
  8044  8103  8104    1
  8045  8103  8105    1
  8046  8103  8106    1
  8047  8107  8108    1
  8048  8107  8111    1
  8049  8107  8115    1
  8050  8107  8119    1
  8051  8108  8109    1
  8052  8108  8110    1
  8053  8108  8123    1
  8054  8111  8112    1
  8055  8111  8113    1
  8056  8111  8114    1
  8057  8115  8116    1
  8058  8115  8117    1
  8059  8115  8118    1
  8060  8119  8120    1
  8061  8119  8121    1
  8062  8119  8122    1
  8063  8123  8124    1
  8064  8123  8125    1
  8065  8123  8129    1
  8066  8126  8127    2
  8067  8126  8128    1
  8068  8126  8129    1
  8069  8126  8130    1
  8070  8130  8131    1
  8071  8131  8132    1
  8072  8131  8133    1
  8073  8131  8134    1
  8074  8134  8135    1
  8075  8134  8136    1
  8076  8134  8142    1
  8077  8136  8137    1
  8078  8137  8138    2
  8079  8137  8139    1
  8080  8139  8140    1
  8081  8139  8141    1
  8082  8139  8151    1
  8083  8142  8143    1
  8084  8142  8144    1
  8085  8142  8145    1
  8086  8145  8146    1
  8087  8146  8147    2
  8088  8146  8148    1
  8089  8148  8149    1
  8090  8148  8150    1
  8091  8148  8198    1
  8092  8151  8152    1
  8093  8151  8153    1
  8094  8151  8154    1
  8095  8154  8155    1
  8096  8154  8156    1
  8097  8154  8157    1
  8098  8157  8158    1
  8099  8157  8159    1
  8100  8157  8160    1
  8101  8160  8161    1
  8102  8160  8162    1
  8103  8160  8163    1
  8104  8163  8164    1
  8105  8163  8165    1
  8106  8163  8166    1
  8107  8166  8167    1
  8108  8166  8168    1
  8109  8166  8169    1
  8110  8169  8170    1
  8111  8169  8171    2
  8112  8171  8172    1
  8113  8171  8173    1
  8114  8173  8174    1
  8115  8173  8175    1
  8116  8173  8176    1
  8117  8176  8177    1
  8118  8176  8178    1
  8119  8176  8179    1
  8120  8179  8180    1
  8121  8179  8181    1
  8122  8179  8182    1
  8123  8182  8183    1
  8124  8182  8184    1
  8125  8182  8185    1
  8126  8185  8186    1
  8127  8185  8187    1
  8128  8185  8188    1
  8129  8188  8189    1
  8130  8188  8190    1
  8131  8188  8191    1
  8132  8191  8192    1
  8133  8191  8193    1
  8134  8191  8194    1
  8135  8194  8195    1
  8136  8194  8196    1
  8137  8194  8197    1
  8138  8198  8199    1
  8139  8198  8200    1
  8140  8198  8201    1
  8141  8201  8202    1
  8142  8201  8203    1
  8143  8201  8204    1
  8144  8204  8205    1
  8145  8204  8206    1
  8146  8204  8207    1
  8147  8207  8208    1
  8148  8207  8209    1
  8149  8207  8210    1
  8150  8210  8211    1
  8151  8210  8212    1
  8152  8210  8213    1
  8153  8213  8214    1
  8154  8213  8215    1
  8155  8213  8216    1
  8156  8216  8217    1
  8157  8216  8218    1
  8158  8216  8219    1
  8159  8219  8220    1
  8160  8219  8221    1
  8161  8219  8222    1
  8162  8222  8223    1
  8163  8222  8224    1
  8164  8222  8225    1
  8165  8225  8226    1
  8166  8225  8227    1
  8167  8225  8228    1
  8168  8228  8229    1
  8169  8228  8230    1
  8170  8228  8231    1
  8171  8231  8232    1
  8172  8231  8233    1
  8173  8231  8234    1
  8174  8234  8235    1
  8175  8234  8236    1
  8176  8234  8237    1
  8177  8237  8238    1
  8178  8237  8239    1
  8179  8237  8240    1
  8180  8241  8242    1
  8181  8241  8245    1
  8182  8241  8249    1
  8183  8241  8253    1
  8184  8242  8243    1
  8185  8242  8244    1
  8186  8242  8257    1
  8187  8245  8246    1
  8188  8245  8247    1
  8189  8245  8248    1
  8190  8249  8250    1
  8191  8249  8251    1
  8192  8249  8252    1
  8193  8253  8254    1
  8194  8253  8255    1
  8195  8253  8256    1
  8196  8257  8258    1
  8197  8257  8259    1
  8198  8257  8263    1
  8199  8260  8261    2
  8200  8260  8262    1
  8201  8260  8263    1
  8202  8260  8264    1
  8203  8264  8265    1
  8204  8265  8266    1
  8205  8265  8267    1
  8206  8265  8268    1
  8207  8268  8269    1
  8208  8268  8270    1
  8209  8268  8276    1
  8210  8270  8271    1
  8211  8271  8272    2
  8212  8271  8273    1
  8213  8273  8274    1
  8214  8273  8275    1
  8215  8273  8285    1
  8216  8276  8277    1
  8217  8276  8278    1
  8218  8276  8279    1
  8219  8279  8280    1
  8220  8280  8281    2
  8221  8280  8282    1
  8222  8282  8283    1
  8223  8282  8284    1
  8224  8282  8332    1
  8225  8285  8286    1
  8226  8285  8287    1
  8227  8285  8288    1
  8228  8288  8289    1
  8229  8288  8290    1
  8230  8288  8291    1
  8231  8291  8292    1
  8232  8291  8293    1
  8233  8291  8294    1
  8234  8294  8295    1
  8235  8294  8296    1
  8236  8294  8297    1
  8237  8297  8298    1
  8238  8297  8299    1
  8239  8297  8300    1
  8240  8300  8301    1
  8241  8300  8302    1
  8242  8300  8303    1
  8243  8303  8304    1
  8244  8303  8305    2
  8245  8305  8306    1
  8246  8305  8307    1
  8247  8307  8308    1
  8248  8307  8309    1
  8249  8307  8310    1
  8250  8310  8311    1
  8251  8310  8312    1
  8252  8310  8313    1
  8253  8313  8314    1
  8254  8313  8315    1
  8255  8313  8316    1
  8256  8316  8317    1
  8257  8316  8318    1
  8258  8316  8319    1
  8259  8319  8320    1
  8260  8319  8321    1
  8261  8319  8322    1
  8262  8322  8323    1
  8263  8322  8324    1
  8264  8322  8325    1
  8265  8325  8326    1
  8266  8325  8327    1
  8267  8325  8328    1
  8268  8328  8329    1
  8269  8328  8330    1
  8270  8328  8331    1
  8271  8332  8333    1
  8272  8332  8334    1
  8273  8332  8335    1
  8274  8335  8336    1
  8275  8335  8337    1
  8276  8335  8338    1
  8277  8338  8339    1
  8278  8338  8340    1
  8279  8338  8341    1
  8280  8341  8342    1
  8281  8341  8343    1
  8282  8341  8344    1
  8283  8344  8345    1
  8284  8344  8346    1
  8285  8344  8347    1
  8286  8347  8348    1
  8287  8347  8349    1
  8288  8347  8350    1
  8289  8350  8351    1
  8290  8350  8352    1
  8291  8350  8353    1
  8292  8353  8354    1
  8293  8353  8355    1
  8294  8353  8356    1
  8295  8356  8357    1
  8296  8356  8358    1
  8297  8356  8359    1
  8298  8359  8360    1
  8299  8359  8361    1
  8300  8359  8362    1
  8301  8362  8363    1
  8302  8362  8364    1
  8303  8362  8365    1
  8304  8365  8366    1
  8305  8365  8367    1
  8306  8365  8368    1
  8307  8368  8369    1
  8308  8368  8370    1
  8309  8368  8371    1
  8310  8371  8372    1
  8311  8371  8373    1
  8312  8371  8374    1
  8313  8375  8376    1
  8314  8375  8379    1
  8315  8375  8383    1
  8316  8375  8387    1
  8317  8376  8377    1
  8318  8376  8378    1
  8319  8376  8391    1
  8320  8379  8380    1
  8321  8379  8381    1
  8322  8379  8382    1
  8323  8383  8384    1
  8324  8383  8385    1
  8325  8383  8386    1
  8326  8387  8388    1
  8327  8387  8389    1
  8328  8387  8390    1
  8329  8391  8392    1
  8330  8391  8393    1
  8331  8391  8397    1
  8332  8394  8395    2
  8333  8394  8396    1
  8334  8394  8397    1
  8335  8394  8398    1
  8336  8398  8399    1
  8337  8399  8400    1
  8338  8399  8401    1
  8339  8399  8402    1
  8340  8402  8403    1
  8341  8402  8404    1
  8342  8402  8410    1
  8343  8404  8405    1
  8344  8405  8406    2
  8345  8405  8407    1
  8346  8407  8408    1
  8347  8407  8409    1
  8348  8407  8419    1
  8349  8410  8411    1
  8350  8410  8412    1
  8351  8410  8413    1
  8352  8413  8414    1
  8353  8414  8415    2
  8354  8414  8416    1
  8355  8416  8417    1
  8356  8416  8418    1
  8357  8416  8466    1
  8358  8419  8420    1
  8359  8419  8421    1
  8360  8419  8422    1
  8361  8422  8423    1
  8362  8422  8424    1
  8363  8422  8425    1
  8364  8425  8426    1
  8365  8425  8427    1
  8366  8425  8428    1
  8367  8428  8429    1
  8368  8428  8430    1
  8369  8428  8431    1
  8370  8431  8432    1
  8371  8431  8433    1
  8372  8431  8434    1
  8373  8434  8435    1
  8374  8434  8436    1
  8375  8434  8437    1
  8376  8437  8438    1
  8377  8437  8439    2
  8378  8439  8440    1
  8379  8439  8441    1
  8380  8441  8442    1
  8381  8441  8443    1
  8382  8441  8444    1
  8383  8444  8445    1
  8384  8444  8446    1
  8385  8444  8447    1
  8386  8447  8448    1
  8387  8447  8449    1
  8388  8447  8450    1
  8389  8450  8451    1
  8390  8450  8452    1
  8391  8450  8453    1
  8392  8453  8454    1
  8393  8453  8455    1
  8394  8453  8456    1
  8395  8456  8457    1
  8396  8456  8458    1
  8397  8456  8459    1
  8398  8459  8460    1
  8399  8459  8461    1
  8400  8459  8462    1
  8401  8462  8463    1
  8402  8462  8464    1
  8403  8462  8465    1
  8404  8466  8467    1
  8405  8466  8468    1
  8406  8466  8469    1
  8407  8469  8470    1
  8408  8469  8471    1
  8409  8469  8472    1
  8410  8472  8473    1
  8411  8472  8474    1
  8412  8472  8475    1
  8413  8475  8476    1
  8414  8475  8477    1
  8415  8475  8478    1
  8416  8478  8479    1
  8417  8478  8480    1
  8418  8478  8481    1
  8419  8481  8482    1
  8420  8481  8483    1
  8421  8481  8484    1
  8422  8484  8485    1
  8423  8484  8486    1
  8424  8484  8487    1
  8425  8487  8488    1
  8426  8487  8489    1
  8427  8487  8490    1
  8428  8490  8491    1
  8429  8490  8492    1
  8430  8490  8493    1
  8431  8493  8494    1
  8432  8493  8495    1
  8433  8493  8496    1
  8434  8496  8497    1
  8435  8496  8498    1
  8436  8496  8499    1
  8437  8499  8500    1
  8438  8499  8501    1
  8439  8499  8502    1
  8440  8502  8503    1
  8441  8502  8504    1
  8442  8502  8505    1
  8443  8505  8506    1
  8444  8505  8507    1
  8445  8505  8508    1
  8446  8509  8510    1
  8447  8509  8513    1
  8448  8509  8517    1
  8449  8509  8521    1
  8450  8510  8511    1
  8451  8510  8512    1
  8452  8510  8525    1
  8453  8513  8514    1
  8454  8513  8515    1
  8455  8513  8516    1
  8456  8517  8518    1
  8457  8517  8519    1
  8458  8517  8520    1
  8459  8521  8522    1
  8460  8521  8523    1
  8461  8521  8524    1
  8462  8525  8526    1
  8463  8525  8527    1
  8464  8525  8531    1
  8465  8528  8529    2
  8466  8528  8530    1
  8467  8528  8531    1
  8468  8528  8532    1
  8469  8532  8533    1
  8470  8533  8534    1
  8471  8533  8535    1
  8472  8533  8536    1
  8473  8536  8537    1
  8474  8536  8538    1
  8475  8536  8544    1
  8476  8538  8539    1
  8477  8539  8540    2
  8478  8539  8541    1
  8479  8541  8542    1
  8480  8541  8543    1
  8481  8541  8553    1
  8482  8544  8545    1
  8483  8544  8546    1
  8484  8544  8547    1
  8485  8547  8548    1
  8486  8548  8549    2
  8487  8548  8550    1
  8488  8550  8551    1
  8489  8550  8552    1
  8490  8550  8600    1
  8491  8553  8554    1
  8492  8553  8555    1
  8493  8553  8556    1
  8494  8556  8557    1
  8495  8556  8558    1
  8496  8556  8559    1
  8497  8559  8560    1
  8498  8559  8561    1
  8499  8559  8562    1
  8500  8562  8563    1
  8501  8562  8564    1
  8502  8562  8565    1
  8503  8565  8566    1
  8504  8565  8567    1
  8505  8565  8568    1
  8506  8568  8569    1
  8507  8568  8570    1
  8508  8568  8571    1
  8509  8571  8572    1
  8510  8571  8573    2
  8511  8573  8574    1
  8512  8573  8575    1
  8513  8575  8576    1
  8514  8575  8577    1
  8515  8575  8578    1
  8516  8578  8579    1
  8517  8578  8580    1
  8518  8578  8581    1
  8519  8581  8582    1
  8520  8581  8583    1
  8521  8581  8584    1
  8522  8584  8585    1
  8523  8584  8586    1
  8524  8584  8587    1
  8525  8587  8588    1
  8526  8587  8589    1
  8527  8587  8590    1
  8528  8590  8591    1
  8529  8590  8592    1
  8530  8590  8593    1
  8531  8593  8594    1
  8532  8593  8595    1
  8533  8593  8596    1
  8534  8596  8597    1
  8535  8596  8598    1
  8536  8596  8599    1
  8537  8600  8601    1
  8538  8600  8602    1
  8539  8600  8603    1
  8540  8603  8604    1
  8541  8603  8605    1
  8542  8603  8606    1
  8543  8606  8607    1
  8544  8606  8608    1
  8545  8606  8609    1
  8546  8609  8610    1
  8547  8609  8611    1
  8548  8609  8612    1
  8549  8612  8613    1
  8550  8612  8614    1
  8551  8612  8615    1
  8552  8615  8616    1
  8553  8615  8617    1
  8554  8615  8618    1
  8555  8618  8619    1
  8556  8618  8620    1
  8557  8618  8621    1
  8558  8621  8622    1
  8559  8621  8623    1
  8560  8621  8624    1
  8561  8624  8625    1
  8562  8624  8626    1
  8563  8624  8627    1
  8564  8627  8628    1
  8565  8627  8629    1
  8566  8627  8630    1
  8567  8630  8631    1
  8568  8630  8632    1
  8569  8630  8633    1
  8570  8633  8634    1
  8571  8633  8635    1
  8572  8633  8636    1
  8573  8636  8637    1
  8574  8636  8638    1
  8575  8636  8639    1
  8576  8639  8640    1
  8577  8639  8641    1
  8578  8639  8642    1
  8579  8643  8644    1
  8580  8643  8647    1
  8581  8643  8651    1
  8582  8643  8655    1
  8583  8644  8645    1
  8584  8644  8646    1
  8585  8644  8659    1
  8586  8647  8648    1
  8587  8647  8649    1
  8588  8647  8650    1
  8589  8651  8652    1
  8590  8651  8653    1
  8591  8651  8654    1
  8592  8655  8656    1
  8593  8655  8657    1
  8594  8655  8658    1
  8595  8659  8660    1
  8596  8659  8661    1
  8597  8659  8665    1
  8598  8662  8663    2
  8599  8662  8664    1
  8600  8662  8665    1
  8601  8662  8666    1
  8602  8666  8667    1
  8603  8667  8668    1
  8604  8667  8669    1
  8605  8667  8670    1
  8606  8670  8671    1
  8607  8670  8672    1
  8608  8670  8678    1
  8609  8672  8673    1
  8610  8673  8674    2
  8611  8673  8675    1
  8612  8675  8676    1
  8613  8675  8677    1
  8614  8675  8687    1
  8615  8678  8679    1
  8616  8678  8680    1
  8617  8678  8681    1
  8618  8681  8682    1
  8619  8682  8683    2
  8620  8682  8684    1
  8621  8684  8685    1
  8622  8684  8686    1
  8623  8684  8734    1
  8624  8687  8688    1
  8625  8687  8689    1
  8626  8687  8690    1
  8627  8690  8691    1
  8628  8690  8692    1
  8629  8690  8693    1
  8630  8693  8694    1
  8631  8693  8695    1
  8632  8693  8696    1
  8633  8696  8697    1
  8634  8696  8698    1
  8635  8696  8699    1
  8636  8699  8700    1
  8637  8699  8701    1
  8638  8699  8702    1
  8639  8702  8703    1
  8640  8702  8704    1
  8641  8702  8705    1
  8642  8705  8706    1
  8643  8705  8707    2
  8644  8707  8708    1
  8645  8707  8709    1
  8646  8709  8710    1
  8647  8709  8711    1
  8648  8709  8712    1
  8649  8712  8713    1
  8650  8712  8714    1
  8651  8712  8715    1
  8652  8715  8716    1
  8653  8715  8717    1
  8654  8715  8718    1
  8655  8718  8719    1
  8656  8718  8720    1
  8657  8718  8721    1
  8658  8721  8722    1
  8659  8721  8723    1
  8660  8721  8724    1
  8661  8724  8725    1
  8662  8724  8726    1
  8663  8724  8727    1
  8664  8727  8728    1
  8665  8727  8729    1
  8666  8727  8730    1
  8667  8730  8731    1
  8668  8730  8732    1
  8669  8730  8733    1
  8670  8734  8735    1
  8671  8734  8736    1
  8672  8734  8737    1
  8673  8737  8738    1
  8674  8737  8739    1
  8675  8737  8740    1
  8676  8740  8741    1
  8677  8740  8742    1
  8678  8740  8743    1
  8679  8743  8744    1
  8680  8743  8745    1
  8681  8743  8746    1
  8682  8746  8747    1
  8683  8746  8748    1
  8684  8746  8749    1
  8685  8749  8750    1
  8686  8749  8751    1
  8687  8749  8752    1
  8688  8752  8753    1
  8689  8752  8754    1
  8690  8752  8755    1
  8691  8755  8756    1
  8692  8755  8757    1
  8693  8755  8758    1
  8694  8758  8759    1
  8695  8758  8760    1
  8696  8758  8761    1
  8697  8761  8762    1
  8698  8761  8763    1
  8699  8761  8764    1
  8700  8764  8765    1
  8701  8764  8766    1
  8702  8764  8767    1
  8703  8767  8768    1
  8704  8767  8769    1
  8705  8767  8770    1
  8706  8770  8771    1
  8707  8770  8772    1
  8708  8770  8773    1
  8709  8773  8774    1
  8710  8773  8775    1
  8711  8773  8776    1
  8712  8777  8778    1
  8713  8777  8781    1
  8714  8777  8785    1
  8715  8777  8789    1
  8716  8778  8779    1
  8717  8778  8780    1
  8718  8778  8793    1
  8719  8781  8782    1
  8720  8781  8783    1
  8721  8781  8784    1
  8722  8785  8786    1
  8723  8785  8787    1
  8724  8785  8788    1
  8725  8789  8790    1
  8726  8789  8791    1
  8727  8789  8792    1
  8728  8793  8794    1
  8729  8793  8795    1
  8730  8793  8799    1
  8731  8796  8797    2
  8732  8796  8798    1
  8733  8796  8799    1
  8734  8796  8800    1
  8735  8800  8801    1
  8736  8801  8802    1
  8737  8801  8803    1
  8738  8801  8804    1
  8739  8804  8805    1
  8740  8804  8806    1
  8741  8804  8812    1
  8742  8806  8807    1
  8743  8807  8808    2
  8744  8807  8809    1
  8745  8809  8810    1
  8746  8809  8811    1
  8747  8809  8821    1
  8748  8812  8813    1
  8749  8812  8814    1
  8750  8812  8815    1
  8751  8815  8816    1
  8752  8816  8817    2
  8753  8816  8818    1
  8754  8818  8819    1
  8755  8818  8820    1
  8756  8818  8868    1
  8757  8821  8822    1
  8758  8821  8823    1
  8759  8821  8824    1
  8760  8824  8825    1
  8761  8824  8826    1
  8762  8824  8827    1
  8763  8827  8828    1
  8764  8827  8829    1
  8765  8827  8830    1
  8766  8830  8831    1
  8767  8830  8832    1
  8768  8830  8833    1
  8769  8833  8834    1
  8770  8833  8835    1
  8771  8833  8836    1
  8772  8836  8837    1
  8773  8836  8838    1
  8774  8836  8839    1
  8775  8839  8840    1
  8776  8839  8841    2
  8777  8841  8842    1
  8778  8841  8843    1
  8779  8843  8844    1
  8780  8843  8845    1
  8781  8843  8846    1
  8782  8846  8847    1
  8783  8846  8848    1
  8784  8846  8849    1
  8785  8849  8850    1
  8786  8849  8851    1
  8787  8849  8852    1
  8788  8852  8853    1
  8789  8852  8854    1
  8790  8852  8855    1
  8791  8855  8856    1
  8792  8855  8857    1
  8793  8855  8858    1
  8794  8858  8859    1
  8795  8858  8860    1
  8796  8858  8861    1
  8797  8861  8862    1
  8798  8861  8863    1
  8799  8861  8864    1
  8800  8864  8865    1
  8801  8864  8866    1
  8802  8864  8867    1
  8803  8868  8869    1
  8804  8868  8870    1
  8805  8868  8871    1
  8806  8871  8872    1
  8807  8871  8873    1
  8808  8871  8874    1
  8809  8874  8875    1
  8810  8874  8876    1
  8811  8874  8877    1
  8812  8877  8878    1
  8813  8877  8879    1
  8814  8877  8880    1
  8815  8880  8881    1
  8816  8880  8882    1
  8817  8880  8883    1
  8818  8883  8884    1
  8819  8883  8885    1
  8820  8883  8886    1
  8821  8886  8887    1
  8822  8886  8888    1
  8823  8886  8889    1
  8824  8889  8890    1
  8825  8889  8891    1
  8826  8889  8892    1
  8827  8892  8893    1
  8828  8892  8894    1
  8829  8892  8895    1
  8830  8895  8896    1
  8831  8895  8897    1
  8832  8895  8898    1
  8833  8898  8899    1
  8834  8898  8900    1
  8835  8898  8901    1
  8836  8901  8902    1
  8837  8901  8903    1
  8838  8901  8904    1
  8839  8904  8905    1
  8840  8904  8906    1
  8841  8904  8907    1
  8842  8907  8908    1
  8843  8907  8909    1
  8844  8907  8910    1
  8845  8911  8912    1
  8846  8911  8915    1
  8847  8911  8919    1
  8848  8911  8923    1
  8849  8912  8913    1
  8850  8912  8914    1
  8851  8912  8927    1
  8852  8915  8916    1
  8853  8915  8917    1
  8854  8915  8918    1
  8855  8919  8920    1
  8856  8919  8921    1
  8857  8919  8922    1
  8858  8923  8924    1
  8859  8923  8925    1
  8860  8923  8926    1
  8861  8927  8928    1
  8862  8927  8929    1
  8863  8927  8933    1
  8864  8930  8931    2
  8865  8930  8932    1
  8866  8930  8933    1
  8867  8930  8934    1
  8868  8934  8935    1
  8869  8935  8936    1
  8870  8935  8937    1
  8871  8935  8938    1
  8872  8938  8939    1
  8873  8938  8940    1
  8874  8938  8946    1
  8875  8940  8941    1
  8876  8941  8942    2
  8877  8941  8943    1
  8878  8943  8944    1
  8879  8943  8945    1
  8880  8943  8955    1
  8881  8946  8947    1
  8882  8946  8948    1
  8883  8946  8949    1
  8884  8949  8950    1
  8885  8950  8951    2
  8886  8950  8952    1
  8887  8952  8953    1
  8888  8952  8954    1
  8889  8952  9002    1
  8890  8955  8956    1
  8891  8955  8957    1
  8892  8955  8958    1
  8893  8958  8959    1
  8894  8958  8960    1
  8895  8958  8961    1
  8896  8961  8962    1
  8897  8961  8963    1
  8898  8961  8964    1
  8899  8964  8965    1
  8900  8964  8966    1
  8901  8964  8967    1
  8902  8967  8968    1
  8903  8967  8969    1
  8904  8967  8970    1
  8905  8970  8971    1
  8906  8970  8972    1
  8907  8970  8973    1
  8908  8973  8974    1
  8909  8973  8975    2
  8910  8975  8976    1
  8911  8975  8977    1
  8912  8977  8978    1
  8913  8977  8979    1
  8914  8977  8980    1
  8915  8980  8981    1
  8916  8980  8982    1
  8917  8980  8983    1
  8918  8983  8984    1
  8919  8983  8985    1
  8920  8983  8986    1
  8921  8986  8987    1
  8922  8986  8988    1
  8923  8986  8989    1
  8924  8989  8990    1
  8925  8989  8991    1
  8926  8989  8992    1
  8927  8992  8993    1
  8928  8992  8994    1
  8929  8992  8995    1
  8930  8995  8996    1
  8931  8995  8997    1
  8932  8995  8998    1
  8933  8998  8999    1
  8934  8998  9000    1
  8935  8998  9001    1
  8936  9002  9003    1
  8937  9002  9004    1
  8938  9002  9005    1
  8939  9005  9006    1
  8940  9005  9007    1
  8941  9005  9008    1
  8942  9008  9009    1
  8943  9008  9010    1
  8944  9008  9011    1
  8945  9011  9012    1
  8946  9011  9013    1
  8947  9011  9014    1
  8948  9014  9015    1
  8949  9014  9016    1
  8950  9014  9017    1
  8951  9017  9018    1
  8952  9017  9019    1
  8953  9017  9020    1
  8954  9020  9021    1
  8955  9020  9022    1
  8956  9020  9023    1
  8957  9023  9024    1
  8958  9023  9025    1
  8959  9023  9026    1
  8960  9026  9027    1
  8961  9026  9028    1
  8962  9026  9029    1
  8963  9029  9030    1
  8964  9029  9031    1
  8965  9029  9032    1
  8966  9032  9033    1
  8967  9032  9034    1
  8968  9032  9035    1
  8969  9035  9036    1
  8970  9035  9037    1
  8971  9035  9038    1
  8972  9038  9039    1
  8973  9038  9040    1
  8974  9038  9041    1
  8975  9041  9042    1
  8976  9041  9043    1
  8977  9041  9044    1
  8978  9045  9046    1
  8979  9045  9049    1
  8980  9045  9053    1
  8981  9045  9057    1
  8982  9046  9047    1
  8983  9046  9048    1
  8984  9046  9061    1
  8985  9049  9050    1
  8986  9049  9051    1
  8987  9049  9052    1
  8988  9053  9054    1
  8989  9053  9055    1
  8990  9053  9056    1
  8991  9057  9058    1
  8992  9057  9059    1
  8993  9057  9060    1
  8994  9061  9062    1
  8995  9061  9063    1
  8996  9061  9067    1
  8997  9064  9065    2
  8998  9064  9066    1
  8999  9064  9067    1
  9000  9064  9068    1
  9001  9068  9069    1
  9002  9069  9070    1
  9003  9069  9071    1
  9004  9069  9072    1
  9005  9072  9073    1
  9006  9072  9074    1
  9007  9072  9080    1
  9008  9074  9075    1
  9009  9075  9076    2
  9010  9075  9077    1
  9011  9077  9078    1
  9012  9077  9079    1
  9013  9077  9089    1
  9014  9080  9081    1
  9015  9080  9082    1
  9016  9080  9083    1
  9017  9083  9084    1
  9018  9084  9085    2
  9019  9084  9086    1
  9020  9086  9087    1
  9021  9086  9088    1
  9022  9086  9136    1
  9023  9089  9090    1
  9024  9089  9091    1
  9025  9089  9092    1
  9026  9092  9093    1
  9027  9092  9094    1
  9028  9092  9095    1
  9029  9095  9096    1
  9030  9095  9097    1
  9031  9095  9098    1
  9032  9098  9099    1
  9033  9098  9100    1
  9034  9098  9101    1
  9035  9101  9102    1
  9036  9101  9103    1
  9037  9101  9104    1
  9038  9104  9105    1
  9039  9104  9106    1
  9040  9104  9107    1
  9041  9107  9108    1
  9042  9107  9109    2
  9043  9109  9110    1
  9044  9109  9111    1
  9045  9111  9112    1
  9046  9111  9113    1
  9047  9111  9114    1
  9048  9114  9115    1
  9049  9114  9116    1
  9050  9114  9117    1
  9051  9117  9118    1
  9052  9117  9119    1
  9053  9117  9120    1
  9054  9120  9121    1
  9055  9120  9122    1
  9056  9120  9123    1
  9057  9123  9124    1
  9058  9123  9125    1
  9059  9123  9126    1
  9060  9126  9127    1
  9061  9126  9128    1
  9062  9126  9129    1
  9063  9129  9130    1
  9064  9129  9131    1
  9065  9129  9132    1
  9066  9132  9133    1
  9067  9132  9134    1
  9068  9132  9135    1
  9069  9136  9137    1
  9070  9136  9138    1
  9071  9136  9139    1
  9072  9139  9140    1
  9073  9139  9141    1
  9074  9139  9142    1
  9075  9142  9143    1
  9076  9142  9144    1
  9077  9142  9145    1
  9078  9145  9146    1
  9079  9145  9147    1
  9080  9145  9148    1
  9081  9148  9149    1
  9082  9148  9150    1
  9083  9148  9151    1
  9084  9151  9152    1
  9085  9151  9153    1
  9086  9151  9154    1
  9087  9154  9155    1
  9088  9154  9156    1
  9089  9154  9157    1
  9090  9157  9158    1
  9091  9157  9159    1
  9092  9157  9160    1
  9093  9160  9161    1
  9094  9160  9162    1
  9095  9160  9163    1
  9096  9163  9164    1
  9097  9163  9165    1
  9098  9163  9166    1
  9099  9166  9167    1
  9100  9166  9168    1
  9101  9166  9169    1
  9102  9169  9170    1
  9103  9169  9171    1
  9104  9169  9172    1
  9105  9172  9173    1
  9106  9172  9174    1
  9107  9172  9175    1
  9108  9175  9176    1
  9109  9175  9177    1
  9110  9175  9178    1
  9111  9179  9180    1
  9112  9179  9183    1
  9113  9179  9187    1
  9114  9179  9191    1
  9115  9180  9181    1
  9116  9180  9182    1
  9117  9180  9195    1
  9118  9183  9184    1
  9119  9183  9185    1
  9120  9183  9186    1
  9121  9187  9188    1
  9122  9187  9189    1
  9123  9187  9190    1
  9124  9191  9192    1
  9125  9191  9193    1
  9126  9191  9194    1
  9127  9195  9196    1
  9128  9195  9197    1
  9129  9195  9201    1
  9130  9198  9199    2
  9131  9198  9200    1
  9132  9198  9201    1
  9133  9198  9202    1
  9134  9202  9203    1
  9135  9203  9204    1
  9136  9203  9205    1
  9137  9203  9206    1
  9138  9206  9207    1
  9139  9206  9208    1
  9140  9206  9214    1
  9141  9208  9209    1
  9142  9209  9210    2
  9143  9209  9211    1
  9144  9211  9212    1
  9145  9211  9213    1
  9146  9211  9223    1
  9147  9214  9215    1
  9148  9214  9216    1
  9149  9214  9217    1
  9150  9217  9218    1
  9151  9218  9219    2
  9152  9218  9220    1
  9153  9220  9221    1
  9154  9220  9222    1
  9155  9220  9270    1
  9156  9223  9224    1
  9157  9223  9225    1
  9158  9223  9226    1
  9159  9226  9227    1
  9160  9226  9228    1
  9161  9226  9229    1
  9162  9229  9230    1
  9163  9229  9231    1
  9164  9229  9232    1
  9165  9232  9233    1
  9166  9232  9234    1
  9167  9232  9235    1
  9168  9235  9236    1
  9169  9235  9237    1
  9170  9235  9238    1
  9171  9238  9239    1
  9172  9238  9240    1
  9173  9238  9241    1
  9174  9241  9242    1
  9175  9241  9243    2
  9176  9243  9244    1
  9177  9243  9245    1
  9178  9245  9246    1
  9179  9245  9247    1
  9180  9245  9248    1
  9181  9248  9249    1
  9182  9248  9250    1
  9183  9248  9251    1
  9184  9251  9252    1
  9185  9251  9253    1
  9186  9251  9254    1
  9187  9254  9255    1
  9188  9254  9256    1
  9189  9254  9257    1
  9190  9257  9258    1
  9191  9257  9259    1
  9192  9257  9260    1
  9193  9260  9261    1
  9194  9260  9262    1
  9195  9260  9263    1
  9196  9263  9264    1
  9197  9263  9265    1
  9198  9263  9266    1
  9199  9266  9267    1
  9200  9266  9268    1
  9201  9266  9269    1
  9202  9270  9271    1
  9203  9270  9272    1
  9204  9270  9273    1
  9205  9273  9274    1
  9206  9273  9275    1
  9207  9273  9276    1
  9208  9276  9277    1
  9209  9276  9278    1
  9210  9276  9279    1
  9211  9279  9280    1
  9212  9279  9281    1
  9213  9279  9282    1
  9214  9282  9283    1
  9215  9282  9284    1
  9216  9282  9285    1
  9217  9285  9286    1
  9218  9285  9287    1
  9219  9285  9288    1
  9220  9288  9289    1
  9221  9288  9290    1
  9222  9288  9291    1
  9223  9291  9292    1
  9224  9291  9293    1
  9225  9291  9294    1
  9226  9294  9295    1
  9227  9294  9296    1
  9228  9294  9297    1
  9229  9297  9298    1
  9230  9297  9299    1
  9231  9297  9300    1
  9232  9300  9301    1
  9233  9300  9302    1
  9234  9300  9303    1
  9235  9303  9304    1
  9236  9303  9305    1
  9237  9303  9306    1
  9238  9306  9307    1
  9239  9306  9308    1
  9240  9306  9309    1
  9241  9309  9310    1
  9242  9309  9311    1
  9243  9309  9312    1
  9244  9313  9314    1
  9245  9313  9317    1
  9246  9313  9321    1
  9247  9313  9325    1
  9248  9314  9315    1
  9249  9314  9316    1
  9250  9314  9329    1
  9251  9317  9318    1
  9252  9317  9319    1
  9253  9317  9320    1
  9254  9321  9322    1
  9255  9321  9323    1
  9256  9321  9324    1
  9257  9325  9326    1
  9258  9325  9327    1
  9259  9325  9328    1
  9260  9329  9330    1
  9261  9329  9331    1
  9262  9329  9335    1
  9263  9332  9333    2
  9264  9332  9334    1
  9265  9332  9335    1
  9266  9332  9336    1
  9267  9336  9337    1
  9268  9337  9338    1
  9269  9337  9339    1
  9270  9337  9340    1
  9271  9340  9341    1
  9272  9340  9342    1
  9273  9340  9348    1
  9274  9342  9343    1
  9275  9343  9344    2
  9276  9343  9345    1
  9277  9345  9346    1
  9278  9345  9347    1
  9279  9345  9357    1
  9280  9348  9349    1
  9281  9348  9350    1
  9282  9348  9351    1
  9283  9351  9352    1
  9284  9352  9353    2
  9285  9352  9354    1
  9286  9354  9355    1
  9287  9354  9356    1
  9288  9354  9404    1
  9289  9357  9358    1
  9290  9357  9359    1
  9291  9357  9360    1
  9292  9360  9361    1
  9293  9360  9362    1
  9294  9360  9363    1
  9295  9363  9364    1
  9296  9363  9365    1
  9297  9363  9366    1
  9298  9366  9367    1
  9299  9366  9368    1
  9300  9366  9369    1
  9301  9369  9370    1
  9302  9369  9371    1
  9303  9369  9372    1
  9304  9372  9373    1
  9305  9372  9374    1
  9306  9372  9375    1
  9307  9375  9376    1
  9308  9375  9377    2
  9309  9377  9378    1
  9310  9377  9379    1
  9311  9379  9380    1
  9312  9379  9381    1
  9313  9379  9382    1
  9314  9382  9383    1
  9315  9382  9384    1
  9316  9382  9385    1
  9317  9385  9386    1
  9318  9385  9387    1
  9319  9385  9388    1
  9320  9388  9389    1
  9321  9388  9390    1
  9322  9388  9391    1
  9323  9391  9392    1
  9324  9391  9393    1
  9325  9391  9394    1
  9326  9394  9395    1
  9327  9394  9396    1
  9328  9394  9397    1
  9329  9397  9398    1
  9330  9397  9399    1
  9331  9397  9400    1
  9332  9400  9401    1
  9333  9400  9402    1
  9334  9400  9403    1
  9335  9404  9405    1
  9336  9404  9406    1
  9337  9404  9407    1
  9338  9407  9408    1
  9339  9407  9409    1
  9340  9407  9410    1
  9341  9410  9411    1
  9342  9410  9412    1
  9343  9410  9413    1
  9344  9413  9414    1
  9345  9413  9415    1
  9346  9413  9416    1
  9347  9416  9417    1
  9348  9416  9418    1
  9349  9416  9419    1
  9350  9419  9420    1
  9351  9419  9421    1
  9352  9419  9422    1
  9353  9422  9423    1
  9354  9422  9424    1
  9355  9422  9425    1
  9356  9425  9426    1
  9357  9425  9427    1
  9358  9425  9428    1
  9359  9428  9429    1
  9360  9428  9430    1
  9361  9428  9431    1
  9362  9431  9432    1
  9363  9431  9433    1
  9364  9431  9434    1
  9365  9434  9435    1
  9366  9434  9436    1
  9367  9434  9437    1
  9368  9437  9438    1
  9369  9437  9439    1
  9370  9437  9440    1
  9371  9440  9441    1
  9372  9440  9442    1
  9373  9440  9443    1
  9374  9443  9444    1
  9375  9443  9445    1
  9376  9443  9446    1
  9377  9447  9448    1
  9378  9447  9451    1
  9379  9447  9455    1
  9380  9447  9459    1
  9381  9448  9449    1
  9382  9448  9450    1
  9383  9448  9463    1
  9384  9451  9452    1
  9385  9451  9453    1
  9386  9451  9454    1
  9387  9455  9456    1
  9388  9455  9457    1
  9389  9455  9458    1
  9390  9459  9460    1
  9391  9459  9461    1
  9392  9459  9462    1
  9393  9463  9464    1
  9394  9463  9465    1
  9395  9463  9469    1
  9396  9466  9467    2
  9397  9466  9468    1
  9398  9466  9469    1
  9399  9466  9470    1
  9400  9470  9471    1
  9401  9471  9472    1
  9402  9471  9473    1
  9403  9471  9474    1
  9404  9474  9475    1
  9405  9474  9476    1
  9406  9474  9482    1
  9407  9476  9477    1
  9408  9477  9478    2
  9409  9477  9479    1
  9410  9479  9480    1
  9411  9479  9481    1
  9412  9479  9491    1
  9413  9482  9483    1
  9414  9482  9484    1
  9415  9482  9485    1
  9416  9485  9486    1
  9417  9486  9487    2
  9418  9486  9488    1
  9419  9488  9489    1
  9420  9488  9490    1
  9421  9488  9538    1
  9422  9491  9492    1
  9423  9491  9493    1
  9424  9491  9494    1
  9425  9494  9495    1
  9426  9494  9496    1
  9427  9494  9497    1
  9428  9497  9498    1
  9429  9497  9499    1
  9430  9497  9500    1
  9431  9500  9501    1
  9432  9500  9502    1
  9433  9500  9503    1
  9434  9503  9504    1
  9435  9503  9505    1
  9436  9503  9506    1
  9437  9506  9507    1
  9438  9506  9508    1
  9439  9506  9509    1
  9440  9509  9510    1
  9441  9509  9511    2
  9442  9511  9512    1
  9443  9511  9513    1
  9444  9513  9514    1
  9445  9513  9515    1
  9446  9513  9516    1
  9447  9516  9517    1
  9448  9516  9518    1
  9449  9516  9519    1
  9450  9519  9520    1
  9451  9519  9521    1
  9452  9519  9522    1
  9453  9522  9523    1
  9454  9522  9524    1
  9455  9522  9525    1
  9456  9525  9526    1
  9457  9525  9527    1
  9458  9525  9528    1
  9459  9528  9529    1
  9460  9528  9530    1
  9461  9528  9531    1
  9462  9531  9532    1
  9463  9531  9533    1
  9464  9531  9534    1
  9465  9534  9535    1
  9466  9534  9536    1
  9467  9534  9537    1
  9468  9538  9539    1
  9469  9538  9540    1
  9470  9538  9541    1
  9471  9541  9542    1
  9472  9541  9543    1
  9473  9541  9544    1
  9474  9544  9545    1
  9475  9544  9546    1
  9476  9544  9547    1
  9477  9547  9548    1
  9478  9547  9549    1
  9479  9547  9550    1
  9480  9550  9551    1
  9481  9550  9552    1
  9482  9550  9553    1
  9483  9553  9554    1
  9484  9553  9555    1
  9485  9553  9556    1
  9486  9556  9557    1
  9487  9556  9558    1
  9488  9556  9559    1
  9489  9559  9560    1
  9490  9559  9561    1
  9491  9559  9562    1
  9492  9562  9563    1
  9493  9562  9564    1
  9494  9562  9565    1
  9495  9565  9566    1
  9496  9565  9567    1
  9497  9565  9568    1
  9498  9568  9569    1
  9499  9568  9570    1
  9500  9568  9571    1
  9501  9571  9572    1
  9502  9571  9573    1
  9503  9571  9574    1
  9504  9574  9575    1
  9505  9574  9576    1
  9506  9574  9577    1
  9507  9577  9578    1
  9508  9577  9579    1
  9509  9577  9580    1
  9510  9581  9582    1
  9511  9581  9585    1
  9512  9581  9589    1
  9513  9581  9593    1
  9514  9582  9583    1
  9515  9582  9584    1
  9516  9582  9597    1
  9517  9585  9586    1
  9518  9585  9587    1
  9519  9585  9588    1
  9520  9589  9590    1
  9521  9589  9591    1
  9522  9589  9592    1
  9523  9593  9594    1
  9524  9593  9595    1
  9525  9593  9596    1
  9526  9597  9598    1
  9527  9597  9599    1
  9528  9597  9603    1
  9529  9600  9601    2
  9530  9600  9602    1
  9531  9600  9603    1
  9532  9600  9604    1
  9533  9604  9605    1
  9534  9605  9606    1
  9535  9605  9607    1
  9536  9605  9608    1
  9537  9608  9609    1
  9538  9608  9610    1
  9539  9608  9616    1
  9540  9610  9611    1
  9541  9611  9612    2
  9542  9611  9613    1
  9543  9613  9614    1
  9544  9613  9615    1
  9545  9613  9625    1
  9546  9616  9617    1
  9547  9616  9618    1
  9548  9616  9619    1
  9549  9619  9620    1
  9550  9620  9621    2
  9551  9620  9622    1
  9552  9622  9623    1
  9553  9622  9624    1
  9554  9622  9672    1
  9555  9625  9626    1
  9556  9625  9627    1
  9557  9625  9628    1
  9558  9628  9629    1
  9559  9628  9630    1
  9560  9628  9631    1
  9561  9631  9632    1
  9562  9631  9633    1
  9563  9631  9634    1
  9564  9634  9635    1
  9565  9634  9636    1
  9566  9634  9637    1
  9567  9637  9638    1
  9568  9637  9639    1
  9569  9637  9640    1
  9570  9640  9641    1
  9571  9640  9642    1
  9572  9640  9643    1
  9573  9643  9644    1
  9574  9643  9645    2
  9575  9645  9646    1
  9576  9645  9647    1
  9577  9647  9648    1
  9578  9647  9649    1
  9579  9647  9650    1
  9580  9650  9651    1
  9581  9650  9652    1
  9582  9650  9653    1
  9583  9653  9654    1
  9584  9653  9655    1
  9585  9653  9656    1
  9586  9656  9657    1
  9587  9656  9658    1
  9588  9656  9659    1
  9589  9659  9660    1
  9590  9659  9661    1
  9591  9659  9662    1
  9592  9662  9663    1
  9593  9662  9664    1
  9594  9662  9665    1
  9595  9665  9666    1
  9596  9665  9667    1
  9597  9665  9668    1
  9598  9668  9669    1
  9599  9668  9670    1
  9600  9668  9671    1
  9601  9672  9673    1
  9602  9672  9674    1
  9603  9672  9675    1
  9604  9675  9676    1
  9605  9675  9677    1
  9606  9675  9678    1
  9607  9678  9679    1
  9608  9678  9680    1
  9609  9678  9681    1
  9610  9681  9682    1
  9611  9681  9683    1
  9612  9681  9684    1
  9613  9684  9685    1
  9614  9684  9686    1
  9615  9684  9687    1
  9616  9687  9688    1
  9617  9687  9689    1
  9618  9687  9690    1
  9619  9690  9691    1
  9620  9690  9692    1
  9621  9690  9693    1
  9622  9693  9694    1
  9623  9693  9695    1
  9624  9693  9696    1
  9625  9696  9697    1
  9626  9696  9698    1
  9627  9696  9699    1
  9628  9699  9700    1
  9629  9699  9701    1
  9630  9699  9702    1
  9631  9702  9703    1
  9632  9702  9704    1
  9633  9702  9705    1
  9634  9705  9706    1
  9635  9705  9707    1
  9636  9705  9708    1
  9637  9708  9709    1
  9638  9708  9710    1
  9639  9708  9711    1
  9640  9711  9712    1
  9641  9711  9713    1
  9642  9711  9714    1
  9643  9715  9716    1
  9644  9715  9719    1
  9645  9715  9723    1
  9646  9715  9727    1
  9647  9716  9717    1
  9648  9716  9718    1
  9649  9716  9731    1
  9650  9719  9720    1
  9651  9719  9721    1
  9652  9719  9722    1
  9653  9723  9724    1
  9654  9723  9725    1
  9655  9723  9726    1
  9656  9727  9728    1
  9657  9727  9729    1
  9658  9727  9730    1
  9659  9731  9732    1
  9660  9731  9733    1
  9661  9731  9737    1
  9662  9734  9735    2
  9663  9734  9736    1
  9664  9734  9737    1
  9665  9734  9738    1
  9666  9738  9739    1
  9667  9739  9740    1
  9668  9739  9741    1
  9669  9739  9742    1
  9670  9742  9743    1
  9671  9742  9744    1
  9672  9742  9750    1
  9673  9744  9745    1
  9674  9745  9746    2
  9675  9745  9747    1
  9676  9747  9748    1
  9677  9747  9749    1
  9678  9747  9759    1
  9679  9750  9751    1
  9680  9750  9752    1
  9681  9750  9753    1
  9682  9753  9754    1
  9683  9754  9755    2
  9684  9754  9756    1
  9685  9756  9757    1
  9686  9756  9758    1
  9687  9756  9806    1
  9688  9759  9760    1
  9689  9759  9761    1
  9690  9759  9762    1
  9691  9762  9763    1
  9692  9762  9764    1
  9693  9762  9765    1
  9694  9765  9766    1
  9695  9765  9767    1
  9696  9765  9768    1
  9697  9768  9769    1
  9698  9768  9770    1
  9699  9768  9771    1
  9700  9771  9772    1
  9701  9771  9773    1
  9702  9771  9774    1
  9703  9774  9775    1
  9704  9774  9776    1
  9705  9774  9777    1
  9706  9777  9778    1
  9707  9777  9779    2
  9708  9779  9780    1
  9709  9779  9781    1
  9710  9781  9782    1
  9711  9781  9783    1
  9712  9781  9784    1
  9713  9784  9785    1
  9714  9784  9786    1
  9715  9784  9787    1
  9716  9787  9788    1
  9717  9787  9789    1
  9718  9787  9790    1
  9719  9790  9791    1
  9720  9790  9792    1
  9721  9790  9793    1
  9722  9793  9794    1
  9723  9793  9795    1
  9724  9793  9796    1
  9725  9796  9797    1
  9726  9796  9798    1
  9727  9796  9799    1
  9728  9799  9800    1
  9729  9799  9801    1
  9730  9799  9802    1
  9731  9802  9803    1
  9732  9802  9804    1
  9733  9802  9805    1
  9734  9806  9807    1
  9735  9806  9808    1
  9736  9806  9809    1
  9737  9809  9810    1
  9738  9809  9811    1
  9739  9809  9812    1
  9740  9812  9813    1
  9741  9812  9814    1
  9742  9812  9815    1
  9743  9815  9816    1
  9744  9815  9817    1
  9745  9815  9818    1
  9746  9818  9819    1
  9747  9818  9820    1
  9748  9818  9821    1
  9749  9821  9822    1
  9750  9821  9823    1
  9751  9821  9824    1
  9752  9824  9825    1
  9753  9824  9826    1
  9754  9824  9827    1
  9755  9827  9828    1
  9756  9827  9829    1
  9757  9827  9830    1
  9758  9830  9831    1
  9759  9830  9832    1
  9760  9830  9833    1
  9761  9833  9834    1
  9762  9833  9835    1
  9763  9833  9836    1
  9764  9836  9837    1
  9765  9836  9838    1
  9766  9836  9839    1
  9767  9839  9840    1
  9768  9839  9841    1
  9769  9839  9842    1
  9770  9842  9843    1
  9771  9842  9844    1
  9772  9842  9845    1
  9773  9845  9846    1
  9774  9845  9847    1
  9775  9845  9848    1
  9776  9849  9850    1
  9777  9849  9853    1
  9778  9849  9857    1
  9779  9849  9861    1
  9780  9850  9851    1
  9781  9850  9852    1
  9782  9850  9865    1
  9783  9853  9854    1
  9784  9853  9855    1
  9785  9853  9856    1
  9786  9857  9858    1
  9787  9857  9859    1
  9788  9857  9860    1
  9789  9861  9862    1
  9790  9861  9863    1
  9791  9861  9864    1
  9792  9865  9866    1
  9793  9865  9867    1
  9794  9865  9871    1
  9795  9868  9869    2
  9796  9868  9870    1
  9797  9868  9871    1
  9798  9868  9872    1
  9799  9872  9873    1
  9800  9873  9874    1
  9801  9873  9875    1
  9802  9873  9876    1
  9803  9876  9877    1
  9804  9876  9878    1
  9805  9876  9884    1
  9806  9878  9879    1
  9807  9879  9880    2
  9808  9879  9881    1
  9809  9881  9882    1
  9810  9881  9883    1
  9811  9881  9893    1
  9812  9884  9885    1
  9813  9884  9886    1
  9814  9884  9887    1
  9815  9887  9888    1
  9816  9888  9889    2
  9817  9888  9890    1
  9818  9890  9891    1
  9819  9890  9892    1
  9820  9890  9940    1
  9821  9893  9894    1
  9822  9893  9895    1
  9823  9893  9896    1
  9824  9896  9897    1
  9825  9896  9898    1
  9826  9896  9899    1
  9827  9899  9900    1
  9828  9899  9901    1
  9829  9899  9902    1
  9830  9902  9903    1
  9831  9902  9904    1
  9832  9902  9905    1
  9833  9905  9906    1
  9834  9905  9907    1
  9835  9905  9908    1
  9836  9908  9909    1
  9837  9908  9910    1
  9838  9908  9911    1
  9839  9911  9912    1
  9840  9911  9913    2
  9841  9913  9914    1
  9842  9913  9915    1
  9843  9915  9916    1
  9844  9915  9917    1
  9845  9915  9918    1
  9846  9918  9919    1
  9847  9918  9920    1
  9848  9918  9921    1
  9849  9921  9922    1
  9850  9921  9923    1
  9851  9921  9924    1
  9852  9924  9925    1
  9853  9924  9926    1
  9854  9924  9927    1
  9855  9927  9928    1
  9856  9927  9929    1
  9857  9927  9930    1
  9858  9930  9931    1
  9859  9930  9932    1
  9860  9930  9933    1
  9861  9933  9934    1
  9862  9933  9935    1
  9863  9933  9936    1
  9864  9936  9937    1
  9865  9936  9938    1
  9866  9936  9939    1
  9867  9940  9941    1
  9868  9940  9942    1
  9869  9940  9943    1
  9870  9943  9944    1
  9871  9943  9945    1
  9872  9943  9946    1
  9873  9946  9947    1
  9874  9946  9948    1
  9875  9946  9949    1
  9876  9949  9950    1
  9877  9949  9951    1
  9878  9949  9952    1
  9879  9952  9953    1
  9880  9952  9954    1
  9881  9952  9955    1
  9882  9955  9956    1
  9883  9955  9957    1
  9884  9955  9958    1
  9885  9958  9959    1
  9886  9958  9960    1
  9887  9958  9961    1
  9888  9961  9962    1
  9889  9961  9963    1
  9890  9961  9964    1
  9891  9964  9965    1
  9892  9964  9966    1
  9893  9964  9967    1
  9894  9967  9968    1
  9895  9967  9969    1
  9896  9967  9970    1
  9897  9970  9971    1
  9898  9970  9972    1
  9899  9970  9973    1
  9900  9973  9974    1
  9901  9973  9975    1
  9902  9973  9976    1
  9903  9976  9977    1
  9904  9976  9978    1
  9905  9976  9979    1
  9906  9979  9980    1
  9907  9979  9981    1
  9908  9979  9982    1
  9909  9983  9984    1
  9910  9983  9987    1
  9911  9983  9991    1
  9912  9983  9995    1
  9913  9984  9985    1
  9914  9984  9986    1
  9915  9984  9999    1
  9916  9987  9988    1
  9917  9987  9989    1
  9918  9987  9990    1
  9919  9991  9992    1
  9920  9991  9993    1
  9921  9991  9994    1
  9922  9995  9996    1
  9923  9995  9997    1
  9924  9995  9998    1
  9925  9999 10000    1
  9926  9999 10001    1
  9927  9999 10005    1
  9928 10002 10003    2
  9929 10002 10004    1
  9930 10002 10005    1
  9931 10002 10006    1
  9932 10006 10007    1
  9933 10007 10008    1
  9934 10007 10009    1
  9935 10007 10010    1
  9936 10010 10011    1
  9937 10010 10012    1
  9938 10010 10018    1
  9939 10012 10013    1
  9940 10013 10014    2
  9941 10013 10015    1
  9942 10015 10016    1
  9943 10015 10017    1
  9944 10015 10027    1
  9945 10018 10019    1
  9946 10018 10020    1
  9947 10018 10021    1
  9948 10021 10022    1
  9949 10022 10023    2
  9950 10022 10024    1
  9951 10024 10025    1
  9952 10024 10026    1
  9953 10024 10074    1
  9954 10027 10028    1
  9955 10027 10029    1
  9956 10027 10030    1
  9957 10030 10031    1
  9958 10030 10032    1
  9959 10030 10033    1
  9960 10033 10034    1
  9961 10033 10035    1
  9962 10033 10036    1
  9963 10036 10037    1
  9964 10036 10038    1
  9965 10036 10039    1
  9966 10039 10040    1
  9967 10039 10041    1
  9968 10039 10042    1
  9969 10042 10043    1
  9970 10042 10044    1
  9971 10042 10045    1
  9972 10045 10046    1
  9973 10045 10047    2
  9974 10047 10048    1
  9975 10047 10049    1
  9976 10049 10050    1
  9977 10049 10051    1
  9978 10049 10052    1
  9979 10052 10053    1
  9980 10052 10054    1
  9981 10052 10055    1
  9982 10055 10056    1
  9983 10055 10057    1
  9984 10055 10058    1
  9985 10058 10059    1
  9986 10058 10060    1
  9987 10058 10061    1
  9988 10061 10062    1
  9989 10061 10063    1
  9990 10061 10064    1
  9991 10064 10065    1
  9992 10064 10066    1
  9993 10064 10067    1
  9994 10067 10068    1
  9995 10067 10069    1
  9996 10067 10070    1
  9997 10070 10071    1
  9998 10070 10072    1
  9999 10070 10073    1
 10000 10074 10075    1
 10001 10074 10076    1
 10002 10074 10077    1
 10003 10077 10078    1
 10004 10077 10079    1
 10005 10077 10080    1
 10006 10080 10081    1
 10007 10080 10082    1
 10008 10080 10083    1
 10009 10083 10084    1
 10010 10083 10085    1
 10011 10083 10086    1
 10012 10086 10087    1
 10013 10086 10088    1
 10014 10086 10089    1
 10015 10089 10090    1
 10016 10089 10091    1
 10017 10089 10092    1
 10018 10092 10093    1
 10019 10092 10094    1
 10020 10092 10095    1
 10021 10095 10096    1
 10022 10095 10097    1
 10023 10095 10098    1
 10024 10098 10099    1
 10025 10098 10100    1
 10026 10098 10101    1
 10027 10101 10102    1
 10028 10101 10103    1
 10029 10101 10104    1
 10030 10104 10105    1
 10031 10104 10106    1
 10032 10104 10107    1
 10033 10107 10108    1
 10034 10107 10109    1
 10035 10107 10110    1
 10036 10110 10111    1
 10037 10110 10112    1
 10038 10110 10113    1
 10039 10113 10114    1
 10040 10113 10115    1
 10041 10113 10116    1
 10042 10117 10118    1
 10043 10117 10121    1
 10044 10117 10125    1
 10045 10117 10129    1
 10046 10118 10119    1
 10047 10118 10120    1
 10048 10118 10133    1
 10049 10121 10122    1
 10050 10121 10123    1
 10051 10121 10124    1
 10052 10125 10126    1
 10053 10125 10127    1
 10054 10125 10128    1
 10055 10129 10130    1
 10056 10129 10131    1
 10057 10129 10132    1
 10058 10133 10134    1
 10059 10133 10135    1
 10060 10133 10139    1
 10061 10136 10137    2
 10062 10136 10138    1
 10063 10136 10139    1
 10064 10136 10140    1
 10065 10140 10141    1
 10066 10141 10142    1
 10067 10141 10143    1
 10068 10141 10144    1
 10069 10144 10145    1
 10070 10144 10146    1
 10071 10144 10152    1
 10072 10146 10147    1
 10073 10147 10148    2
 10074 10147 10149    1
 10075 10149 10150    1
 10076 10149 10151    1
 10077 10149 10161    1
 10078 10152 10153    1
 10079 10152 10154    1
 10080 10152 10155    1
 10081 10155 10156    1
 10082 10156 10157    2
 10083 10156 10158    1
 10084 10158 10159    1
 10085 10158 10160    1
 10086 10158 10208    1
 10087 10161 10162    1
 10088 10161 10163    1
 10089 10161 10164    1
 10090 10164 10165    1
 10091 10164 10166    1
 10092 10164 10167    1
 10093 10167 10168    1
 10094 10167 10169    1
 10095 10167 10170    1
 10096 10170 10171    1
 10097 10170 10172    1
 10098 10170 10173    1
 10099 10173 10174    1
 10100 10173 10175    1
 10101 10173 10176    1
 10102 10176 10177    1
 10103 10176 10178    1
 10104 10176 10179    1
 10105 10179 10180    1
 10106 10179 10181    2
 10107 10181 10182    1
 10108 10181 10183    1
 10109 10183 10184    1
 10110 10183 10185    1
 10111 10183 10186    1
 10112 10186 10187    1
 10113 10186 10188    1
 10114 10186 10189    1
 10115 10189 10190    1
 10116 10189 10191    1
 10117 10189 10192    1
 10118 10192 10193    1
 10119 10192 10194    1
 10120 10192 10195    1
 10121 10195 10196    1
 10122 10195 10197    1
 10123 10195 10198    1
 10124 10198 10199    1
 10125 10198 10200    1
 10126 10198 10201    1
 10127 10201 10202    1
 10128 10201 10203    1
 10129 10201 10204    1
 10130 10204 10205    1
 10131 10204 10206    1
 10132 10204 10207    1
 10133 10208 10209    1
 10134 10208 10210    1
 10135 10208 10211    1
 10136 10211 10212    1
 10137 10211 10213    1
 10138 10211 10214    1
 10139 10214 10215    1
 10140 10214 10216    1
 10141 10214 10217    1
 10142 10217 10218    1
 10143 10217 10219    1
 10144 10217 10220    1
 10145 10220 10221    1
 10146 10220 10222    1
 10147 10220 10223    1
 10148 10223 10224    1
 10149 10223 10225    1
 10150 10223 10226    1
 10151 10226 10227    1
 10152 10226 10228    1
 10153 10226 10229    1
 10154 10229 10230    1
 10155 10229 10231    1
 10156 10229 10232    1
 10157 10232 10233    1
 10158 10232 10234    1
 10159 10232 10235    1
 10160 10235 10236    1
 10161 10235 10237    1
 10162 10235 10238    1
 10163 10238 10239    1
 10164 10238 10240    1
 10165 10238 10241    1
 10166 10241 10242    1
 10167 10241 10243    1
 10168 10241 10244    1
 10169 10244 10245    1
 10170 10244 10246    1
 10171 10244 10247    1
 10172 10247 10248    1
 10173 10247 10249    1
 10174 10247 10250    1
 10175 10251 10252    1
 10176 10251 10255    1
 10177 10251 10259    1
 10178 10251 10263    1
 10179 10252 10253    1
 10180 10252 10254    1
 10181 10252 10267    1
 10182 10255 10256    1
 10183 10255 10257    1
 10184 10255 10258    1
 10185 10259 10260    1
 10186 10259 10261    1
 10187 10259 10262    1
 10188 10263 10264    1
 10189 10263 10265    1
 10190 10263 10266    1
 10191 10267 10268    1
 10192 10267 10269    1
 10193 10267 10273    1
 10194 10270 10271    2
 10195 10270 10272    1
 10196 10270 10273    1
 10197 10270 10274    1
 10198 10274 10275    1
 10199 10275 10276    1
 10200 10275 10277    1
 10201 10275 10278    1
 10202 10278 10279    1
 10203 10278 10280    1
 10204 10278 10286    1
 10205 10280 10281    1
 10206 10281 10282    2
 10207 10281 10283    1
 10208 10283 10284    1
 10209 10283 10285    1
 10210 10283 10295    1
 10211 10286 10287    1
 10212 10286 10288    1
 10213 10286 10289    1
 10214 10289 10290    1
 10215 10290 10291    2
 10216 10290 10292    1
 10217 10292 10293    1
 10218 10292 10294    1
 10219 10292 10342    1
 10220 10295 10296    1
 10221 10295 10297    1
 10222 10295 10298    1
 10223 10298 10299    1
 10224 10298 10300    1
 10225 10298 10301    1
 10226 10301 10302    1
 10227 10301 10303    1
 10228 10301 10304    1
 10229 10304 10305    1
 10230 10304 10306    1
 10231 10304 10307    1
 10232 10307 10308    1
 10233 10307 10309    1
 10234 10307 10310    1
 10235 10310 10311    1
 10236 10310 10312    1
 10237 10310 10313    1
 10238 10313 10314    1
 10239 10313 10315    2
 10240 10315 10316    1
 10241 10315 10317    1
 10242 10317 10318    1
 10243 10317 10319    1
 10244 10317 10320    1
 10245 10320 10321    1
 10246 10320 10322    1
 10247 10320 10323    1
 10248 10323 10324    1
 10249 10323 10325    1
 10250 10323 10326    1
 10251 10326 10327    1
 10252 10326 10328    1
 10253 10326 10329    1
 10254 10329 10330    1
 10255 10329 10331    1
 10256 10329 10332    1
 10257 10332 10333    1
 10258 10332 10334    1
 10259 10332 10335    1
 10260 10335 10336    1
 10261 10335 10337    1
 10262 10335 10338    1
 10263 10338 10339    1
 10264 10338 10340    1
 10265 10338 10341    1
 10266 10342 10343    1
 10267 10342 10344    1
 10268 10342 10345    1
 10269 10345 10346    1
 10270 10345 10347    1
 10271 10345 10348    1
 10272 10348 10349    1
 10273 10348 10350    1
 10274 10348 10351    1
 10275 10351 10352    1
 10276 10351 10353    1
 10277 10351 10354    1
 10278 10354 10355    1
 10279 10354 10356    1
 10280 10354 10357    1
 10281 10357 10358    1
 10282 10357 10359    1
 10283 10357 10360    1
 10284 10360 10361    1
 10285 10360 10362    1
 10286 10360 10363    1
 10287 10363 10364    1
 10288 10363 10365    1
 10289 10363 10366    1
 10290 10366 10367    1
 10291 10366 10368    1
 10292 10366 10369    1
 10293 10369 10370    1
 10294 10369 10371    1
 10295 10369 10372    1
 10296 10372 10373    1
 10297 10372 10374    1
 10298 10372 10375    1
 10299 10375 10376    1
 10300 10375 10377    1
 10301 10375 10378    1
 10302 10378 10379    1
 10303 10378 10380    1
 10304 10378 10381    1
 10305 10381 10382    1
 10306 10381 10383    1
 10307 10381 10384    1
 10308 10385 10386    1
 10309 10385 10389    1
 10310 10385 10393    1
 10311 10385 10397    1
 10312 10386 10387    1
 10313 10386 10388    1
 10314 10386 10401    1
 10315 10389 10390    1
 10316 10389 10391    1
 10317 10389 10392    1
 10318 10393 10394    1
 10319 10393 10395    1
 10320 10393 10396    1
 10321 10397 10398    1
 10322 10397 10399    1
 10323 10397 10400    1
 10324 10401 10402    1
 10325 10401 10403    1
 10326 10401 10407    1
 10327 10404 10405    2
 10328 10404 10406    1
 10329 10404 10407    1
 10330 10404 10408    1
 10331 10408 10409    1
 10332 10409 10410    1
 10333 10409 10411    1
 10334 10409 10412    1
 10335 10412 10413    1
 10336 10412 10414    1
 10337 10412 10420    1
 10338 10414 10415    1
 10339 10415 10416    2
 10340 10415 10417    1
 10341 10417 10418    1
 10342 10417 10419    1
 10343 10417 10429    1
 10344 10420 10421    1
 10345 10420 10422    1
 10346 10420 10423    1
 10347 10423 10424    1
 10348 10424 10425    2
 10349 10424 10426    1
 10350 10426 10427    1
 10351 10426 10428    1
 10352 10426 10476    1
 10353 10429 10430    1
 10354 10429 10431    1
 10355 10429 10432    1
 10356 10432 10433    1
 10357 10432 10434    1
 10358 10432 10435    1
 10359 10435 10436    1
 10360 10435 10437    1
 10361 10435 10438    1
 10362 10438 10439    1
 10363 10438 10440    1
 10364 10438 10441    1
 10365 10441 10442    1
 10366 10441 10443    1
 10367 10441 10444    1
 10368 10444 10445    1
 10369 10444 10446    1
 10370 10444 10447    1
 10371 10447 10448    1
 10372 10447 10449    2
 10373 10449 10450    1
 10374 10449 10451    1
 10375 10451 10452    1
 10376 10451 10453    1
 10377 10451 10454    1
 10378 10454 10455    1
 10379 10454 10456    1
 10380 10454 10457    1
 10381 10457 10458    1
 10382 10457 10459    1
 10383 10457 10460    1
 10384 10460 10461    1
 10385 10460 10462    1
 10386 10460 10463    1
 10387 10463 10464    1
 10388 10463 10465    1
 10389 10463 10466    1
 10390 10466 10467    1
 10391 10466 10468    1
 10392 10466 10469    1
 10393 10469 10470    1
 10394 10469 10471    1
 10395 10469 10472    1
 10396 10472 10473    1
 10397 10472 10474    1
 10398 10472 10475    1
 10399 10476 10477    1
 10400 10476 10478    1
 10401 10476 10479    1
 10402 10479 10480    1
 10403 10479 10481    1
 10404 10479 10482    1
 10405 10482 10483    1
 10406 10482 10484    1
 10407 10482 10485    1
 10408 10485 10486    1
 10409 10485 10487    1
 10410 10485 10488    1
 10411 10488 10489    1
 10412 10488 10490    1
 10413 10488 10491    1
 10414 10491 10492    1
 10415 10491 10493    1
 10416 10491 10494    1
 10417 10494 10495    1
 10418 10494 10496    1
 10419 10494 10497    1
 10420 10497 10498    1
 10421 10497 10499    1
 10422 10497 10500    1
 10423 10500 10501    1
 10424 10500 10502    1
 10425 10500 10503    1
 10426 10503 10504    1
 10427 10503 10505    1
 10428 10503 10506    1
 10429 10506 10507    1
 10430 10506 10508    1
 10431 10506 10509    1
 10432 10509 10510    1
 10433 10509 10511    1
 10434 10509 10512    1
 10435 10512 10513    1
 10436 10512 10514    1
 10437 10512 10515    1
 10438 10515 10516    1
 10439 10515 10517    1
 10440 10515 10518    1
 10441 10519 10520    1
 10442 10519 10523    1
 10443 10519 10527    1
 10444 10519 10531    1
 10445 10520 10521    1
 10446 10520 10522    1
 10447 10520 10535    1
 10448 10523 10524    1
 10449 10523 10525    1
 10450 10523 10526    1
 10451 10527 10528    1
 10452 10527 10529    1
 10453 10527 10530    1
 10454 10531 10532    1
 10455 10531 10533    1
 10456 10531 10534    1
 10457 10535 10536    1
 10458 10535 10537    1
 10459 10535 10541    1
 10460 10538 10539    2
 10461 10538 10540    1
 10462 10538 10541    1
 10463 10538 10542    1
 10464 10542 10543    1
 10465 10543 10544    1
 10466 10543 10545    1
 10467 10543 10546    1
 10468 10546 10547    1
 10469 10546 10548    1
 10470 10546 10554    1
 10471 10548 10549    1
 10472 10549 10550    2
 10473 10549 10551    1
 10474 10551 10552    1
 10475 10551 10553    1
 10476 10551 10563    1
 10477 10554 10555    1
 10478 10554 10556    1
 10479 10554 10557    1
 10480 10557 10558    1
 10481 10558 10559    2
 10482 10558 10560    1
 10483 10560 10561    1
 10484 10560 10562    1
 10485 10560 10610    1
 10486 10563 10564    1
 10487 10563 10565    1
 10488 10563 10566    1
 10489 10566 10567    1
 10490 10566 10568    1
 10491 10566 10569    1
 10492 10569 10570    1
 10493 10569 10571    1
 10494 10569 10572    1
 10495 10572 10573    1
 10496 10572 10574    1
 10497 10572 10575    1
 10498 10575 10576    1
 10499 10575 10577    1
 10500 10575 10578    1
 10501 10578 10579    1
 10502 10578 10580    1
 10503 10578 10581    1
 10504 10581 10582    1
 10505 10581 10583    2
 10506 10583 10584    1
 10507 10583 10585    1
 10508 10585 10586    1
 10509 10585 10587    1
 10510 10585 10588    1
 10511 10588 10589    1
 10512 10588 10590    1
 10513 10588 10591    1
 10514 10591 10592    1
 10515 10591 10593    1
 10516 10591 10594    1
 10517 10594 10595    1
 10518 10594 10596    1
 10519 10594 10597    1
 10520 10597 10598    1
 10521 10597 10599    1
 10522 10597 10600    1
 10523 10600 10601    1
 10524 10600 10602    1
 10525 10600 10603    1
 10526 10603 10604    1
 10527 10603 10605    1
 10528 10603 10606    1
 10529 10606 10607    1
 10530 10606 10608    1
 10531 10606 10609    1
 10532 10610 10611    1
 10533 10610 10612    1
 10534 10610 10613    1
 10535 10613 10614    1
 10536 10613 10615    1
 10537 10613 10616    1
 10538 10616 10617    1
 10539 10616 10618    1
 10540 10616 10619    1
 10541 10619 10620    1
 10542 10619 10621    1
 10543 10619 10622    1
 10544 10622 10623    1
 10545 10622 10624    1
 10546 10622 10625    1
 10547 10625 10626    1
 10548 10625 10627    1
 10549 10625 10628    1
 10550 10628 10629    1
 10551 10628 10630    1
 10552 10628 10631    1
 10553 10631 10632    1
 10554 10631 10633    1
 10555 10631 10634    1
 10556 10634 10635    1
 10557 10634 10636    1
 10558 10634 10637    1
 10559 10637 10638    1
 10560 10637 10639    1
 10561 10637 10640    1
 10562 10640 10641    1
 10563 10640 10642    1
 10564 10640 10643    1
 10565 10643 10644    1
 10566 10643 10645    1
 10567 10643 10646    1
 10568 10646 10647    1
 10569 10646 10648    1
 10570 10646 10649    1
 10571 10649 10650    1
 10572 10649 10651    1
 10573 10649 10652    1
 10574 10653 10654    1
 10575 10653 10657    1
 10576 10653 10661    1
 10577 10653 10665    1
 10578 10654 10655    1
 10579 10654 10656    1
 10580 10654 10669    1
 10581 10657 10658    1
 10582 10657 10659    1
 10583 10657 10660    1
 10584 10661 10662    1
 10585 10661 10663    1
 10586 10661 10664    1
 10587 10665 10666    1
 10588 10665 10667    1
 10589 10665 10668    1
 10590 10669 10670    1
 10591 10669 10671    1
 10592 10669 10675    1
 10593 10672 10673    2
 10594 10672 10674    1
 10595 10672 10675    1
 10596 10672 10676    1
 10597 10676 10677    1
 10598 10677 10678    1
 10599 10677 10679    1
 10600 10677 10680    1
 10601 10680 10681    1
 10602 10680 10682    1
 10603 10680 10688    1
 10604 10682 10683    1
 10605 10683 10684    2
 10606 10683 10685    1
 10607 10685 10686    1
 10608 10685 10687    1
 10609 10685 10697    1
 10610 10688 10689    1
 10611 10688 10690    1
 10612 10688 10691    1
 10613 10691 10692    1
 10614 10692 10693    2
 10615 10692 10694    1
 10616 10694 10695    1
 10617 10694 10696    1
 10618 10694 10744    1
 10619 10697 10698    1
 10620 10697 10699    1
 10621 10697 10700    1
 10622 10700 10701    1
 10623 10700 10702    1
 10624 10700 10703    1
 10625 10703 10704    1
 10626 10703 10705    1
 10627 10703 10706    1
 10628 10706 10707    1
 10629 10706 10708    1
 10630 10706 10709    1
 10631 10709 10710    1
 10632 10709 10711    1
 10633 10709 10712    1
 10634 10712 10713    1
 10635 10712 10714    1
 10636 10712 10715    1
 10637 10715 10716    1
 10638 10715 10717    2
 10639 10717 10718    1
 10640 10717 10719    1
 10641 10719 10720    1
 10642 10719 10721    1
 10643 10719 10722    1
 10644 10722 10723    1
 10645 10722 10724    1
 10646 10722 10725    1
 10647 10725 10726    1
 10648 10725 10727    1
 10649 10725 10728    1
 10650 10728 10729    1
 10651 10728 10730    1
 10652 10728 10731    1
 10653 10731 10732    1
 10654 10731 10733    1
 10655 10731 10734    1
 10656 10734 10735    1
 10657 10734 10736    1
 10658 10734 10737    1
 10659 10737 10738    1
 10660 10737 10739    1
 10661 10737 10740    1
 10662 10740 10741    1
 10663 10740 10742    1
 10664 10740 10743    1
 10665 10744 10745    1
 10666 10744 10746    1
 10667 10744 10747    1
 10668 10747 10748    1
 10669 10747 10749    1
 10670 10747 10750    1
 10671 10750 10751    1
 10672 10750 10752    1
 10673 10750 10753    1
 10674 10753 10754    1
 10675 10753 10755    1
 10676 10753 10756    1
 10677 10756 10757    1
 10678 10756 10758    1
 10679 10756 10759    1
 10680 10759 10760    1
 10681 10759 10761    1
 10682 10759 10762    1
 10683 10762 10763    1
 10684 10762 10764    1
 10685 10762 10765    1
 10686 10765 10766    1
 10687 10765 10767    1
 10688 10765 10768    1
 10689 10768 10769    1
 10690 10768 10770    1
 10691 10768 10771    1
 10692 10771 10772    1
 10693 10771 10773    1
 10694 10771 10774    1
 10695 10774 10775    1
 10696 10774 10776    1
 10697 10774 10777    1
 10698 10777 10778    1
 10699 10777 10779    1
 10700 10777 10780    1
 10701 10780 10781    1
 10702 10780 10782    1
 10703 10780 10783    1
 10704 10783 10784    1
 10705 10783 10785    1
 10706 10783 10786    1
 10707 10787 10788    1
 10708 10787 10791    1
 10709 10787 10795    1
 10710 10787 10799    1
 10711 10788 10789    1
 10712 10788 10790    1
 10713 10788 10803    1
 10714 10791 10792    1
 10715 10791 10793    1
 10716 10791 10794    1
 10717 10795 10796    1
 10718 10795 10797    1
 10719 10795 10798    1
 10720 10799 10800    1
 10721 10799 10801    1
 10722 10799 10802    1
 10723 10803 10804    1
 10724 10803 10805    1
 10725 10803 10809    1
 10726 10806 10807    2
 10727 10806 10808    1
 10728 10806 10809    1
 10729 10806 10810    1
 10730 10810 10811    1
 10731 10811 10812    1
 10732 10811 10813    1
 10733 10811 10814    1
 10734 10814 10815    1
 10735 10814 10816    1
 10736 10814 10822    1
 10737 10816 10817    1
 10738 10817 10818    2
 10739 10817 10819    1
 10740 10819 10820    1
 10741 10819 10821    1
 10742 10819 10831    1
 10743 10822 10823    1
 10744 10822 10824    1
 10745 10822 10825    1
 10746 10825 10826    1
 10747 10826 10827    2
 10748 10826 10828    1
 10749 10828 10829    1
 10750 10828 10830    1
 10751 10828 10878    1
 10752 10831 10832    1
 10753 10831 10833    1
 10754 10831 10834    1
 10755 10834 10835    1
 10756 10834 10836    1
 10757 10834 10837    1
 10758 10837 10838    1
 10759 10837 10839    1
 10760 10837 10840    1
 10761 10840 10841    1
 10762 10840 10842    1
 10763 10840 10843    1
 10764 10843 10844    1
 10765 10843 10845    1
 10766 10843 10846    1
 10767 10846 10847    1
 10768 10846 10848    1
 10769 10846 10849    1
 10770 10849 10850    1
 10771 10849 10851    2
 10772 10851 10852    1
 10773 10851 10853    1
 10774 10853 10854    1
 10775 10853 10855    1
 10776 10853 10856    1
 10777 10856 10857    1
 10778 10856 10858    1
 10779 10856 10859    1
 10780 10859 10860    1
 10781 10859 10861    1
 10782 10859 10862    1
 10783 10862 10863    1
 10784 10862 10864    1
 10785 10862 10865    1
 10786 10865 10866    1
 10787 10865 10867    1
 10788 10865 10868    1
 10789 10868 10869    1
 10790 10868 10870    1
 10791 10868 10871    1
 10792 10871 10872    1
 10793 10871 10873    1
 10794 10871 10874    1
 10795 10874 10875    1
 10796 10874 10876    1
 10797 10874 10877    1
 10798 10878 10879    1
 10799 10878 10880    1
 10800 10878 10881    1
 10801 10881 10882    1
 10802 10881 10883    1
 10803 10881 10884    1
 10804 10884 10885    1
 10805 10884 10886    1
 10806 10884 10887    1
 10807 10887 10888    1
 10808 10887 10889    1
 10809 10887 10890    1
 10810 10890 10891    1
 10811 10890 10892    1
 10812 10890 10893    1
 10813 10893 10894    1
 10814 10893 10895    1
 10815 10893 10896    1
 10816 10896 10897    1
 10817 10896 10898    1
 10818 10896 10899    1
 10819 10899 10900    1
 10820 10899 10901    1
 10821 10899 10902    1
 10822 10902 10903    1
 10823 10902 10904    1
 10824 10902 10905    1
 10825 10905 10906    1
 10826 10905 10907    1
 10827 10905 10908    1
 10828 10908 10909    1
 10829 10908 10910    1
 10830 10908 10911    1
 10831 10911 10912    1
 10832 10911 10913    1
 10833 10911 10914    1
 10834 10914 10915    1
 10835 10914 10916    1
 10836 10914 10917    1
 10837 10917 10918    1
 10838 10917 10919    1
 10839 10917 10920    1
 10840 10921 10922    1
 10841 10921 10925    1
 10842 10921 10929    1
 10843 10921 10933    1
 10844 10922 10923    1
 10845 10922 10924    1
 10846 10922 10937    1
 10847 10925 10926    1
 10848 10925 10927    1
 10849 10925 10928    1
 10850 10929 10930    1
 10851 10929 10931    1
 10852 10929 10932    1
 10853 10933 10934    1
 10854 10933 10935    1
 10855 10933 10936    1
 10856 10937 10938    1
 10857 10937 10939    1
 10858 10937 10943    1
 10859 10940 10941    2
 10860 10940 10942    1
 10861 10940 10943    1
 10862 10940 10944    1
 10863 10944 10945    1
 10864 10945 10946    1
 10865 10945 10947    1
 10866 10945 10948    1
 10867 10948 10949    1
 10868 10948 10950    1
 10869 10948 10956    1
 10870 10950 10951    1
 10871 10951 10952    2
 10872 10951 10953    1
 10873 10953 10954    1
 10874 10953 10955    1
 10875 10953 10965    1
 10876 10956 10957    1
 10877 10956 10958    1
 10878 10956 10959    1
 10879 10959 10960    1
 10880 10960 10961    2
 10881 10960 10962    1
 10882 10962 10963    1
 10883 10962 10964    1
 10884 10962 11012    1
 10885 10965 10966    1
 10886 10965 10967    1
 10887 10965 10968    1
 10888 10968 10969    1
 10889 10968 10970    1
 10890 10968 10971    1
 10891 10971 10972    1
 10892 10971 10973    1
 10893 10971 10974    1
 10894 10974 10975    1
 10895 10974 10976    1
 10896 10974 10977    1
 10897 10977 10978    1
 10898 10977 10979    1
 10899 10977 10980    1
 10900 10980 10981    1
 10901 10980 10982    1
 10902 10980 10983    1
 10903 10983 10984    1
 10904 10983 10985    2
 10905 10985 10986    1
 10906 10985 10987    1
 10907 10987 10988    1
 10908 10987 10989    1
 10909 10987 10990    1
 10910 10990 10991    1
 10911 10990 10992    1
 10912 10990 10993    1
 10913 10993 10994    1
 10914 10993 10995    1
 10915 10993 10996    1
 10916 10996 10997    1
 10917 10996 10998    1
 10918 10996 10999    1
 10919 10999 11000    1
 10920 10999 11001    1
 10921 10999 11002    1
 10922 11002 11003    1
 10923 11002 11004    1
 10924 11002 11005    1
 10925 11005 11006    1
 10926 11005 11007    1
 10927 11005 11008    1
 10928 11008 11009    1
 10929 11008 11010    1
 10930 11008 11011    1
 10931 11012 11013    1
 10932 11012 11014    1
 10933 11012 11015    1
 10934 11015 11016    1
 10935 11015 11017    1
 10936 11015 11018    1
 10937 11018 11019    1
 10938 11018 11020    1
 10939 11018 11021    1
 10940 11021 11022    1
 10941 11021 11023    1
 10942 11021 11024    1
 10943 11024 11025    1
 10944 11024 11026    1
 10945 11024 11027    1
 10946 11027 11028    1
 10947 11027 11029    1
 10948 11027 11030    1
 10949 11030 11031    1
 10950 11030 11032    1
 10951 11030 11033    1
 10952 11033 11034    1
 10953 11033 11035    1
 10954 11033 11036    1
 10955 11036 11037    1
 10956 11036 11038    1
 10957 11036 11039    1
 10958 11039 11040    1
 10959 11039 11041    1
 10960 11039 11042    1
 10961 11042 11043    1
 10962 11042 11044    1
 10963 11042 11045    1
 10964 11045 11046    1
 10965 11045 11047    1
 10966 11045 11048    1
 10967 11048 11049    1
 10968 11048 11050    1
 10969 11048 11051    1
 10970 11051 11052    1
 10971 11051 11053    1
 10972 11051 11054    1
 10973 11055 11056    1
 10974 11055 11059    1
 10975 11055 11063    1
 10976 11055 11067    1
 10977 11056 11057    1
 10978 11056 11058    1
 10979 11056 11071    1
 10980 11059 11060    1
 10981 11059 11061    1
 10982 11059 11062    1
 10983 11063 11064    1
 10984 11063 11065    1
 10985 11063 11066    1
 10986 11067 11068    1
 10987 11067 11069    1
 10988 11067 11070    1
 10989 11071 11072    1
 10990 11071 11073    1
 10991 11071 11077    1
 10992 11074 11075    2
 10993 11074 11076    1
 10994 11074 11077    1
 10995 11074 11078    1
 10996 11078 11079    1
 10997 11079 11080    1
 10998 11079 11081    1
 10999 11079 11082    1
 11000 11082 11083    1
 11001 11082 11084    1
 11002 11082 11090    1
 11003 11084 11085    1
 11004 11085 11086    2
 11005 11085 11087    1
 11006 11087 11088    1
 11007 11087 11089    1
 11008 11087 11099    1
 11009 11090 11091    1
 11010 11090 11092    1
 11011 11090 11093    1
 11012 11093 11094    1
 11013 11094 11095    2
 11014 11094 11096    1
 11015 11096 11097    1
 11016 11096 11098    1
 11017 11096 11146    1
 11018 11099 11100    1
 11019 11099 11101    1
 11020 11099 11102    1
 11021 11102 11103    1
 11022 11102 11104    1
 11023 11102 11105    1
 11024 11105 11106    1
 11025 11105 11107    1
 11026 11105 11108    1
 11027 11108 11109    1
 11028 11108 11110    1
 11029 11108 11111    1
 11030 11111 11112    1
 11031 11111 11113    1
 11032 11111 11114    1
 11033 11114 11115    1
 11034 11114 11116    1
 11035 11114 11117    1
 11036 11117 11118    1
 11037 11117 11119    2
 11038 11119 11120    1
 11039 11119 11121    1
 11040 11121 11122    1
 11041 11121 11123    1
 11042 11121 11124    1
 11043 11124 11125    1
 11044 11124 11126    1
 11045 11124 11127    1
 11046 11127 11128    1
 11047 11127 11129    1
 11048 11127 11130    1
 11049 11130 11131    1
 11050 11130 11132    1
 11051 11130 11133    1
 11052 11133 11134    1
 11053 11133 11135    1
 11054 11133 11136    1
 11055 11136 11137    1
 11056 11136 11138    1
 11057 11136 11139    1
 11058 11139 11140    1
 11059 11139 11141    1
 11060 11139 11142    1
 11061 11142 11143    1
 11062 11142 11144    1
 11063 11142 11145    1
 11064 11146 11147    1
 11065 11146 11148    1
 11066 11146 11149    1
 11067 11149 11150    1
 11068 11149 11151    1
 11069 11149 11152    1
 11070 11152 11153    1
 11071 11152 11154    1
 11072 11152 11155    1
 11073 11155 11156    1
 11074 11155 11157    1
 11075 11155 11158    1
 11076 11158 11159    1
 11077 11158 11160    1
 11078 11158 11161    1
 11079 11161 11162    1
 11080 11161 11163    1
 11081 11161 11164    1
 11082 11164 11165    1
 11083 11164 11166    1
 11084 11164 11167    1
 11085 11167 11168    1
 11086 11167 11169    1
 11087 11167 11170    1
 11088 11170 11171    1
 11089 11170 11172    1
 11090 11170 11173    1
 11091 11173 11174    1
 11092 11173 11175    1
 11093 11173 11176    1
 11094 11176 11177    1
 11095 11176 11178    1
 11096 11176 11179    1
 11097 11179 11180    1
 11098 11179 11181    1
 11099 11179 11182    1
 11100 11182 11183    1
 11101 11182 11184    1
 11102 11182 11185    1
 11103 11185 11186    1
 11104 11185 11187    1
 11105 11185 11188    1
 11106 11189 11190    1
 11107 11189 11193    1
 11108 11189 11197    1
 11109 11189 11201    1
 11110 11190 11191    1
 11111 11190 11192    1
 11112 11190 11205    1
 11113 11193 11194    1
 11114 11193 11195    1
 11115 11193 11196    1
 11116 11197 11198    1
 11117 11197 11199    1
 11118 11197 11200    1
 11119 11201 11202    1
 11120 11201 11203    1
 11121 11201 11204    1
 11122 11205 11206    1
 11123 11205 11207    1
 11124 11205 11211    1
 11125 11208 11209    2
 11126 11208 11210    1
 11127 11208 11211    1
 11128 11208 11212    1
 11129 11212 11213    1
 11130 11213 11214    1
 11131 11213 11215    1
 11132 11213 11216    1
 11133 11216 11217    1
 11134 11216 11218    1
 11135 11216 11224    1
 11136 11218 11219    1
 11137 11219 11220    2
 11138 11219 11221    1
 11139 11221 11222    1
 11140 11221 11223    1
 11141 11221 11233    1
 11142 11224 11225    1
 11143 11224 11226    1
 11144 11224 11227    1
 11145 11227 11228    1
 11146 11228 11229    2
 11147 11228 11230    1
 11148 11230 11231    1
 11149 11230 11232    1
 11150 11230 11280    1
 11151 11233 11234    1
 11152 11233 11235    1
 11153 11233 11236    1
 11154 11236 11237    1
 11155 11236 11238    1
 11156 11236 11239    1
 11157 11239 11240    1
 11158 11239 11241    1
 11159 11239 11242    1
 11160 11242 11243    1
 11161 11242 11244    1
 11162 11242 11245    1
 11163 11245 11246    1
 11164 11245 11247    1
 11165 11245 11248    1
 11166 11248 11249    1
 11167 11248 11250    1
 11168 11248 11251    1
 11169 11251 11252    1
 11170 11251 11253    2
 11171 11253 11254    1
 11172 11253 11255    1
 11173 11255 11256    1
 11174 11255 11257    1
 11175 11255 11258    1
 11176 11258 11259    1
 11177 11258 11260    1
 11178 11258 11261    1
 11179 11261 11262    1
 11180 11261 11263    1
 11181 11261 11264    1
 11182 11264 11265    1
 11183 11264 11266    1
 11184 11264 11267    1
 11185 11267 11268    1
 11186 11267 11269    1
 11187 11267 11270    1
 11188 11270 11271    1
 11189 11270 11272    1
 11190 11270 11273    1
 11191 11273 11274    1
 11192 11273 11275    1
 11193 11273 11276    1
 11194 11276 11277    1
 11195 11276 11278    1
 11196 11276 11279    1
 11197 11280 11281    1
 11198 11280 11282    1
 11199 11280 11283    1
 11200 11283 11284    1
 11201 11283 11285    1
 11202 11283 11286    1
 11203 11286 11287    1
 11204 11286 11288    1
 11205 11286 11289    1
 11206 11289 11290    1
 11207 11289 11291    1
 11208 11289 11292    1
 11209 11292 11293    1
 11210 11292 11294    1
 11211 11292 11295    1
 11212 11295 11296    1
 11213 11295 11297    1
 11214 11295 11298    1
 11215 11298 11299    1
 11216 11298 11300    1
 11217 11298 11301    1
 11218 11301 11302    1
 11219 11301 11303    1
 11220 11301 11304    1
 11221 11304 11305    1
 11222 11304 11306    1
 11223 11304 11307    1
 11224 11307 11308    1
 11225 11307 11309    1
 11226 11307 11310    1
 11227 11310 11311    1
 11228 11310 11312    1
 11229 11310 11313    1
 11230 11313 11314    1
 11231 11313 11315    1
 11232 11313 11316    1
 11233 11316 11317    1
 11234 11316 11318    1
 11235 11316 11319    1
 11236 11319 11320    1
 11237 11319 11321    1
 11238 11319 11322    1
 11239 11323 11324    1
 11240 11323 11327    1
 11241 11323 11331    1
 11242 11323 11335    1
 11243 11324 11325    1
 11244 11324 11326    1
 11245 11324 11339    1
 11246 11327 11328    1
 11247 11327 11329    1
 11248 11327 11330    1
 11249 11331 11332    1
 11250 11331 11333    1
 11251 11331 11334    1
 11252 11335 11336    1
 11253 11335 11337    1
 11254 11335 11338    1
 11255 11339 11340    1
 11256 11339 11341    1
 11257 11339 11345    1
 11258 11342 11343    2
 11259 11342 11344    1
 11260 11342 11345    1
 11261 11342 11346    1
 11262 11346 11347    1
 11263 11347 11348    1
 11264 11347 11349    1
 11265 11347 11350    1
 11266 11350 11351    1
 11267 11350 11352    1
 11268 11350 11358    1
 11269 11352 11353    1
 11270 11353 11354    2
 11271 11353 11355    1
 11272 11355 11356    1
 11273 11355 11357    1
 11274 11355 11367    1
 11275 11358 11359    1
 11276 11358 11360    1
 11277 11358 11361    1
 11278 11361 11362    1
 11279 11362 11363    2
 11280 11362 11364    1
 11281 11364 11365    1
 11282 11364 11366    1
 11283 11364 11414    1
 11284 11367 11368    1
 11285 11367 11369    1
 11286 11367 11370    1
 11287 11370 11371    1
 11288 11370 11372    1
 11289 11370 11373    1
 11290 11373 11374    1
 11291 11373 11375    1
 11292 11373 11376    1
 11293 11376 11377    1
 11294 11376 11378    1
 11295 11376 11379    1
 11296 11379 11380    1
 11297 11379 11381    1
 11298 11379 11382    1
 11299 11382 11383    1
 11300 11382 11384    1
 11301 11382 11385    1
 11302 11385 11386    1
 11303 11385 11387    2
 11304 11387 11388    1
 11305 11387 11389    1
 11306 11389 11390    1
 11307 11389 11391    1
 11308 11389 11392    1
 11309 11392 11393    1
 11310 11392 11394    1
 11311 11392 11395    1
 11312 11395 11396    1
 11313 11395 11397    1
 11314 11395 11398    1
 11315 11398 11399    1
 11316 11398 11400    1
 11317 11398 11401    1
 11318 11401 11402    1
 11319 11401 11403    1
 11320 11401 11404    1
 11321 11404 11405    1
 11322 11404 11406    1
 11323 11404 11407    1
 11324 11407 11408    1
 11325 11407 11409    1
 11326 11407 11410    1
 11327 11410 11411    1
 11328 11410 11412    1
 11329 11410 11413    1
 11330 11414 11415    1
 11331 11414 11416    1
 11332 11414 11417    1
 11333 11417 11418    1
 11334 11417 11419    1
 11335 11417 11420    1
 11336 11420 11421    1
 11337 11420 11422    1
 11338 11420 11423    1
 11339 11423 11424    1
 11340 11423 11425    1
 11341 11423 11426    1
 11342 11426 11427    1
 11343 11426 11428    1
 11344 11426 11429    1
 11345 11429 11430    1
 11346 11429 11431    1
 11347 11429 11432    1
 11348 11432 11433    1
 11349 11432 11434    1
 11350 11432 11435    1
 11351 11435 11436    1
 11352 11435 11437    1
 11353 11435 11438    1
 11354 11438 11439    1
 11355 11438 11440    1
 11356 11438 11441    1
 11357 11441 11442    1
 11358 11441 11443    1
 11359 11441 11444    1
 11360 11444 11445    1
 11361 11444 11446    1
 11362 11444 11447    1
 11363 11447 11448    1
 11364 11447 11449    1
 11365 11447 11450    1
 11366 11450 11451    1
 11367 11450 11452    1
 11368 11450 11453    1
 11369 11453 11454    1
 11370 11453 11455    1
 11371 11453 11456    1
 11372 11457 11458    1
 11373 11457 11461    1
 11374 11457 11465    1
 11375 11457 11469    1
 11376 11458 11459    1
 11377 11458 11460    1
 11378 11458 11473    1
 11379 11461 11462    1
 11380 11461 11463    1
 11381 11461 11464    1
 11382 11465 11466    1
 11383 11465 11467    1
 11384 11465 11468    1
 11385 11469 11470    1
 11386 11469 11471    1
 11387 11469 11472    1
 11388 11473 11474    1
 11389 11473 11475    1
 11390 11473 11479    1
 11391 11476 11477    2
 11392 11476 11478    1
 11393 11476 11479    1
 11394 11476 11480    1
 11395 11480 11481    1
 11396 11481 11482    1
 11397 11481 11483    1
 11398 11481 11484    1
 11399 11484 11485    1
 11400 11484 11486    1
 11401 11484 11492    1
 11402 11486 11487    1
 11403 11487 11488    2
 11404 11487 11489    1
 11405 11489 11490    1
 11406 11489 11491    1
 11407 11489 11501    1
 11408 11492 11493    1
 11409 11492 11494    1
 11410 11492 11495    1
 11411 11495 11496    1
 11412 11496 11497    2
 11413 11496 11498    1
 11414 11498 11499    1
 11415 11498 11500    1
 11416 11498 11548    1
 11417 11501 11502    1
 11418 11501 11503    1
 11419 11501 11504    1
 11420 11504 11505    1
 11421 11504 11506    1
 11422 11504 11507    1
 11423 11507 11508    1
 11424 11507 11509    1
 11425 11507 11510    1
 11426 11510 11511    1
 11427 11510 11512    1
 11428 11510 11513    1
 11429 11513 11514    1
 11430 11513 11515    1
 11431 11513 11516    1
 11432 11516 11517    1
 11433 11516 11518    1
 11434 11516 11519    1
 11435 11519 11520    1
 11436 11519 11521    2
 11437 11521 11522    1
 11438 11521 11523    1
 11439 11523 11524    1
 11440 11523 11525    1
 11441 11523 11526    1
 11442 11526 11527    1
 11443 11526 11528    1
 11444 11526 11529    1
 11445 11529 11530    1
 11446 11529 11531    1
 11447 11529 11532    1
 11448 11532 11533    1
 11449 11532 11534    1
 11450 11532 11535    1
 11451 11535 11536    1
 11452 11535 11537    1
 11453 11535 11538    1
 11454 11538 11539    1
 11455 11538 11540    1
 11456 11538 11541    1
 11457 11541 11542    1
 11458 11541 11543    1
 11459 11541 11544    1
 11460 11544 11545    1
 11461 11544 11546    1
 11462 11544 11547    1
 11463 11548 11549    1
 11464 11548 11550    1
 11465 11548 11551    1
 11466 11551 11552    1
 11467 11551 11553    1
 11468 11551 11554    1
 11469 11554 11555    1
 11470 11554 11556    1
 11471 11554 11557    1
 11472 11557 11558    1
 11473 11557 11559    1
 11474 11557 11560    1
 11475 11560 11561    1
 11476 11560 11562    1
 11477 11560 11563    1
 11478 11563 11564    1
 11479 11563 11565    1
 11480 11563 11566    1
 11481 11566 11567    1
 11482 11566 11568    1
 11483 11566 11569    1
 11484 11569 11570    1
 11485 11569 11571    1
 11486 11569 11572    1
 11487 11572 11573    1
 11488 11572 11574    1
 11489 11572 11575    1
 11490 11575 11576    1
 11491 11575 11577    1
 11492 11575 11578    1
 11493 11578 11579    1
 11494 11578 11580    1
 11495 11578 11581    1
 11496 11581 11582    1
 11497 11581 11583    1
 11498 11581 11584    1
 11499 11584 11585    1
 11500 11584 11586    1
 11501 11584 11587    1
 11502 11587 11588    1
 11503 11587 11589    1
 11504 11587 11590    1
 11505 11591 11592    1
 11506 11591 11595    1
 11507 11591 11599    1
 11508 11591 11603    1
 11509 11592 11593    1
 11510 11592 11594    1
 11511 11592 11607    1
 11512 11595 11596    1
 11513 11595 11597    1
 11514 11595 11598    1
 11515 11599 11600    1
 11516 11599 11601    1
 11517 11599 11602    1
 11518 11603 11604    1
 11519 11603 11605    1
 11520 11603 11606    1
 11521 11607 11608    1
 11522 11607 11609    1
 11523 11607 11613    1
 11524 11610 11611    2
 11525 11610 11612    1
 11526 11610 11613    1
 11527 11610 11614    1
 11528 11614 11615    1
 11529 11615 11616    1
 11530 11615 11617    1
 11531 11615 11618    1
 11532 11618 11619    1
 11533 11618 11620    1
 11534 11618 11626    1
 11535 11620 11621    1
 11536 11621 11622    2
 11537 11621 11623    1
 11538 11623 11624    1
 11539 11623 11625    1
 11540 11623 11635    1
 11541 11626 11627    1
 11542 11626 11628    1
 11543 11626 11629    1
 11544 11629 11630    1
 11545 11630 11631    2
 11546 11630 11632    1
 11547 11632 11633    1
 11548 11632 11634    1
 11549 11632 11682    1
 11550 11635 11636    1
 11551 11635 11637    1
 11552 11635 11638    1
 11553 11638 11639    1
 11554 11638 11640    1
 11555 11638 11641    1
 11556 11641 11642    1
 11557 11641 11643    1
 11558 11641 11644    1
 11559 11644 11645    1
 11560 11644 11646    1
 11561 11644 11647    1
 11562 11647 11648    1
 11563 11647 11649    1
 11564 11647 11650    1
 11565 11650 11651    1
 11566 11650 11652    1
 11567 11650 11653    1
 11568 11653 11654    1
 11569 11653 11655    2
 11570 11655 11656    1
 11571 11655 11657    1
 11572 11657 11658    1
 11573 11657 11659    1
 11574 11657 11660    1
 11575 11660 11661    1
 11576 11660 11662    1
 11577 11660 11663    1
 11578 11663 11664    1
 11579 11663 11665    1
 11580 11663 11666    1
 11581 11666 11667    1
 11582 11666 11668    1
 11583 11666 11669    1
 11584 11669 11670    1
 11585 11669 11671    1
 11586 11669 11672    1
 11587 11672 11673    1
 11588 11672 11674    1
 11589 11672 11675    1
 11590 11675 11676    1
 11591 11675 11677    1
 11592 11675 11678    1
 11593 11678 11679    1
 11594 11678 11680    1
 11595 11678 11681    1
 11596 11682 11683    1
 11597 11682 11684    1
 11598 11682 11685    1
 11599 11685 11686    1
 11600 11685 11687    1
 11601 11685 11688    1
 11602 11688 11689    1
 11603 11688 11690    1
 11604 11688 11691    1
 11605 11691 11692    1
 11606 11691 11693    1
 11607 11691 11694    1
 11608 11694 11695    1
 11609 11694 11696    1
 11610 11694 11697    1
 11611 11697 11698    1
 11612 11697 11699    1
 11613 11697 11700    1
 11614 11700 11701    1
 11615 11700 11702    1
 11616 11700 11703    1
 11617 11703 11704    1
 11618 11703 11705    1
 11619 11703 11706    1
 11620 11706 11707    1
 11621 11706 11708    1
 11622 11706 11709    1
 11623 11709 11710    1
 11624 11709 11711    1
 11625 11709 11712    1
 11626 11712 11713    1
 11627 11712 11714    1
 11628 11712 11715    1
 11629 11715 11716    1
 11630 11715 11717    1
 11631 11715 11718    1
 11632 11718 11719    1
 11633 11718 11720    1
 11634 11718 11721    1
 11635 11721 11722    1
 11636 11721 11723    1
 11637 11721 11724    1
 11638 11725 11726    1
 11639 11725 11729    1
 11640 11725 11733    1
 11641 11725 11737    1
 11642 11726 11727    1
 11643 11726 11728    1
 11644 11726 11741    1
 11645 11729 11730    1
 11646 11729 11731    1
 11647 11729 11732    1
 11648 11733 11734    1
 11649 11733 11735    1
 11650 11733 11736    1
 11651 11737 11738    1
 11652 11737 11739    1
 11653 11737 11740    1
 11654 11741 11742    1
 11655 11741 11743    1
 11656 11741 11747    1
 11657 11744 11745    2
 11658 11744 11746    1
 11659 11744 11747    1
 11660 11744 11748    1
 11661 11748 11749    1
 11662 11749 11750    1
 11663 11749 11751    1
 11664 11749 11752    1
 11665 11752 11753    1
 11666 11752 11754    1
 11667 11752 11760    1
 11668 11754 11755    1
 11669 11755 11756    2
 11670 11755 11757    1
 11671 11757 11758    1
 11672 11757 11759    1
 11673 11757 11769    1
 11674 11760 11761    1
 11675 11760 11762    1
 11676 11760 11763    1
 11677 11763 11764    1
 11678 11764 11765    2
 11679 11764 11766    1
 11680 11766 11767    1
 11681 11766 11768    1
 11682 11766 11816    1
 11683 11769 11770    1
 11684 11769 11771    1
 11685 11769 11772    1
 11686 11772 11773    1
 11687 11772 11774    1
 11688 11772 11775    1
 11689 11775 11776    1
 11690 11775 11777    1
 11691 11775 11778    1
 11692 11778 11779    1
 11693 11778 11780    1
 11694 11778 11781    1
 11695 11781 11782    1
 11696 11781 11783    1
 11697 11781 11784    1
 11698 11784 11785    1
 11699 11784 11786    1
 11700 11784 11787    1
 11701 11787 11788    1
 11702 11787 11789    2
 11703 11789 11790    1
 11704 11789 11791    1
 11705 11791 11792    1
 11706 11791 11793    1
 11707 11791 11794    1
 11708 11794 11795    1
 11709 11794 11796    1
 11710 11794 11797    1
 11711 11797 11798    1
 11712 11797 11799    1
 11713 11797 11800    1
 11714 11800 11801    1
 11715 11800 11802    1
 11716 11800 11803    1
 11717 11803 11804    1
 11718 11803 11805    1
 11719 11803 11806    1
 11720 11806 11807    1
 11721 11806 11808    1
 11722 11806 11809    1
 11723 11809 11810    1
 11724 11809 11811    1
 11725 11809 11812    1
 11726 11812 11813    1
 11727 11812 11814    1
 11728 11812 11815    1
 11729 11816 11817    1
 11730 11816 11818    1
 11731 11816 11819    1
 11732 11819 11820    1
 11733 11819 11821    1
 11734 11819 11822    1
 11735 11822 11823    1
 11736 11822 11824    1
 11737 11822 11825    1
 11738 11825 11826    1
 11739 11825 11827    1
 11740 11825 11828    1
 11741 11828 11829    1
 11742 11828 11830    1
 11743 11828 11831    1
 11744 11831 11832    1
 11745 11831 11833    1
 11746 11831 11834    1
 11747 11834 11835    1
 11748 11834 11836    1
 11749 11834 11837    1
 11750 11837 11838    1
 11751 11837 11839    1
 11752 11837 11840    1
 11753 11840 11841    1
 11754 11840 11842    1
 11755 11840 11843    1
 11756 11843 11844    1
 11757 11843 11845    1
 11758 11843 11846    1
 11759 11846 11847    1
 11760 11846 11848    1
 11761 11846 11849    1
 11762 11849 11850    1
 11763 11849 11851    1
 11764 11849 11852    1
 11765 11852 11853    1
 11766 11852 11854    1
 11767 11852 11855    1
 11768 11855 11856    1
 11769 11855 11857    1
 11770 11855 11858    1
 11771 11859 11860    1
 11772 11859 11863    1
 11773 11859 11867    1
 11774 11859 11871    1
 11775 11860 11861    1
 11776 11860 11862    1
 11777 11860 11875    1
 11778 11863 11864    1
 11779 11863 11865    1
 11780 11863 11866    1
 11781 11867 11868    1
 11782 11867 11869    1
 11783 11867 11870    1
 11784 11871 11872    1
 11785 11871 11873    1
 11786 11871 11874    1
 11787 11875 11876    1
 11788 11875 11877    1
 11789 11875 11881    1
 11790 11878 11879    2
 11791 11878 11880    1
 11792 11878 11881    1
 11793 11878 11882    1
 11794 11882 11883    1
 11795 11883 11884    1
 11796 11883 11885    1
 11797 11883 11886    1
 11798 11886 11887    1
 11799 11886 11888    1
 11800 11886 11894    1
 11801 11888 11889    1
 11802 11889 11890    2
 11803 11889 11891    1
 11804 11891 11892    1
 11805 11891 11893    1
 11806 11891 11903    1
 11807 11894 11895    1
 11808 11894 11896    1
 11809 11894 11897    1
 11810 11897 11898    1
 11811 11898 11899    2
 11812 11898 11900    1
 11813 11900 11901    1
 11814 11900 11902    1
 11815 11900 11950    1
 11816 11903 11904    1
 11817 11903 11905    1
 11818 11903 11906    1
 11819 11906 11907    1
 11820 11906 11908    1
 11821 11906 11909    1
 11822 11909 11910    1
 11823 11909 11911    1
 11824 11909 11912    1
 11825 11912 11913    1
 11826 11912 11914    1
 11827 11912 11915    1
 11828 11915 11916    1
 11829 11915 11917    1
 11830 11915 11918    1
 11831 11918 11919    1
 11832 11918 11920    1
 11833 11918 11921    1
 11834 11921 11922    1
 11835 11921 11923    2
 11836 11923 11924    1
 11837 11923 11925    1
 11838 11925 11926    1
 11839 11925 11927    1
 11840 11925 11928    1
 11841 11928 11929    1
 11842 11928 11930    1
 11843 11928 11931    1
 11844 11931 11932    1
 11845 11931 11933    1
 11846 11931 11934    1
 11847 11934 11935    1
 11848 11934 11936    1
 11849 11934 11937    1
 11850 11937 11938    1
 11851 11937 11939    1
 11852 11937 11940    1
 11853 11940 11941    1
 11854 11940 11942    1
 11855 11940 11943    1
 11856 11943 11944    1
 11857 11943 11945    1
 11858 11943 11946    1
 11859 11946 11947    1
 11860 11946 11948    1
 11861 11946 11949    1
 11862 11950 11951    1
 11863 11950 11952    1
 11864 11950 11953    1
 11865 11953 11954    1
 11866 11953 11955    1
 11867 11953 11956    1
 11868 11956 11957    1
 11869 11956 11958    1
 11870 11956 11959    1
 11871 11959 11960    1
 11872 11959 11961    1
 11873 11959 11962    1
 11874 11962 11963    1
 11875 11962 11964    1
 11876 11962 11965    1
 11877 11965 11966    1
 11878 11965 11967    1
 11879 11965 11968    1
 11880 11968 11969    1
 11881 11968 11970    1
 11882 11968 11971    1
 11883 11971 11972    1
 11884 11971 11973    1
 11885 11971 11974    1
 11886 11974 11975    1
 11887 11974 11976    1
 11888 11974 11977    1
 11889 11977 11978    1
 11890 11977 11979    1
 11891 11977 11980    1
 11892 11980 11981    1
 11893 11980 11982    1
 11894 11980 11983    1
 11895 11983 11984    1
 11896 11983 11985    1
 11897 11983 11986    1
 11898 11986 11987    1
 11899 11986 11988    1
 11900 11986 11989    1
 11901 11989 11990    1
 11902 11989 11991    1
 11903 11989 11992    1
 11904 11993 11994    1
 11905 11993 11997    1
 11906 11993 12001    1
 11907 11993 12005    1
 11908 11994 11995    1
 11909 11994 11996    1
 11910 11994 12009    1
 11911 11997 11998    1
 11912 11997 11999    1
 11913 11997 12000    1
 11914 12001 12002    1
 11915 12001 12003    1
 11916 12001 12004    1
 11917 12005 12006    1
 11918 12005 12007    1
 11919 12005 12008    1
 11920 12009 12010    1
 11921 12009 12011    1
 11922 12009 12015    1
 11923 12012 12013    2
 11924 12012 12014    1
 11925 12012 12015    1
 11926 12012 12016    1
 11927 12016 12017    1
 11928 12017 12018    1
 11929 12017 12019    1
 11930 12017 12020    1
 11931 12020 12021    1
 11932 12020 12022    1
 11933 12020 12028    1
 11934 12022 12023    1
 11935 12023 12024    2
 11936 12023 12025    1
 11937 12025 12026    1
 11938 12025 12027    1
 11939 12025 12037    1
 11940 12028 12029    1
 11941 12028 12030    1
 11942 12028 12031    1
 11943 12031 12032    1
 11944 12032 12033    2
 11945 12032 12034    1
 11946 12034 12035    1
 11947 12034 12036    1
 11948 12034 12084    1
 11949 12037 12038    1
 11950 12037 12039    1
 11951 12037 12040    1
 11952 12040 12041    1
 11953 12040 12042    1
 11954 12040 12043    1
 11955 12043 12044    1
 11956 12043 12045    1
 11957 12043 12046    1
 11958 12046 12047    1
 11959 12046 12048    1
 11960 12046 12049    1
 11961 12049 12050    1
 11962 12049 12051    1
 11963 12049 12052    1
 11964 12052 12053    1
 11965 12052 12054    1
 11966 12052 12055    1
 11967 12055 12056    1
 11968 12055 12057    2
 11969 12057 12058    1
 11970 12057 12059    1
 11971 12059 12060    1
 11972 12059 12061    1
 11973 12059 12062    1
 11974 12062 12063    1
 11975 12062 12064    1
 11976 12062 12065    1
 11977 12065 12066    1
 11978 12065 12067    1
 11979 12065 12068    1
 11980 12068 12069    1
 11981 12068 12070    1
 11982 12068 12071    1
 11983 12071 12072    1
 11984 12071 12073    1
 11985 12071 12074    1
 11986 12074 12075    1
 11987 12074 12076    1
 11988 12074 12077    1
 11989 12077 12078    1
 11990 12077 12079    1
 11991 12077 12080    1
 11992 12080 12081    1
 11993 12080 12082    1
 11994 12080 12083    1
 11995 12084 12085    1
 11996 12084 12086    1
 11997 12084 12087    1
 11998 12087 12088    1
 11999 12087 12089    1
 12000 12087 12090    1
 12001 12090 12091    1
 12002 12090 12092    1
 12003 12090 12093    1
 12004 12093 12094    1
 12005 12093 12095    1
 12006 12093 12096    1
 12007 12096 12097    1
 12008 12096 12098    1
 12009 12096 12099    1
 12010 12099 12100    1
 12011 12099 12101    1
 12012 12099 12102    1
 12013 12102 12103    1
 12014 12102 12104    1
 12015 12102 12105    1
 12016 12105 12106    1
 12017 12105 12107    1
 12018 12105 12108    1
 12019 12108 12109    1
 12020 12108 12110    1
 12021 12108 12111    1
 12022 12111 12112    1
 12023 12111 12113    1
 12024 12111 12114    1
 12025 12114 12115    1
 12026 12114 12116    1
 12027 12114 12117    1
 12028 12117 12118    1
 12029 12117 12119    1
 12030 12117 12120    1
 12031 12120 12121    1
 12032 12120 12122    1
 12033 12120 12123    1
 12034 12123 12124    1
 12035 12123 12125    1
 12036 12123 12126    1
 12037 12127 12128    1
 12038 12127 12131    1
 12039 12127 12135    1
 12040 12127 12139    1
 12041 12128 12129    1
 12042 12128 12130    1
 12043 12128 12143    1
 12044 12131 12132    1
 12045 12131 12133    1
 12046 12131 12134    1
 12047 12135 12136    1
 12048 12135 12137    1
 12049 12135 12138    1
 12050 12139 12140    1
 12051 12139 12141    1
 12052 12139 12142    1
 12053 12143 12144    1
 12054 12143 12145    1
 12055 12143 12149    1
 12056 12146 12147    2
 12057 12146 12148    1
 12058 12146 12149    1
 12059 12146 12150    1
 12060 12150 12151    1
 12061 12151 12152    1
 12062 12151 12153    1
 12063 12151 12154    1
 12064 12154 12155    1
 12065 12154 12156    1
 12066 12154 12162    1
 12067 12156 12157    1
 12068 12157 12158    2
 12069 12157 12159    1
 12070 12159 12160    1
 12071 12159 12161    1
 12072 12159 12171    1
 12073 12162 12163    1
 12074 12162 12164    1
 12075 12162 12165    1
 12076 12165 12166    1
 12077 12166 12167    2
 12078 12166 12168    1
 12079 12168 12169    1
 12080 12168 12170    1
 12081 12168 12218    1
 12082 12171 12172    1
 12083 12171 12173    1
 12084 12171 12174    1
 12085 12174 12175    1
 12086 12174 12176    1
 12087 12174 12177    1
 12088 12177 12178    1
 12089 12177 12179    1
 12090 12177 12180    1
 12091 12180 12181    1
 12092 12180 12182    1
 12093 12180 12183    1
 12094 12183 12184    1
 12095 12183 12185    1
 12096 12183 12186    1
 12097 12186 12187    1
 12098 12186 12188    1
 12099 12186 12189    1
 12100 12189 12190    1
 12101 12189 12191    2
 12102 12191 12192    1
 12103 12191 12193    1
 12104 12193 12194    1
 12105 12193 12195    1
 12106 12193 12196    1
 12107 12196 12197    1
 12108 12196 12198    1
 12109 12196 12199    1
 12110 12199 12200    1
 12111 12199 12201    1
 12112 12199 12202    1
 12113 12202 12203    1
 12114 12202 12204    1
 12115 12202 12205    1
 12116 12205 12206    1
 12117 12205 12207    1
 12118 12205 12208    1
 12119 12208 12209    1
 12120 12208 12210    1
 12121 12208 12211    1
 12122 12211 12212    1
 12123 12211 12213    1
 12124 12211 12214    1
 12125 12214 12215    1
 12126 12214 12216    1
 12127 12214 12217    1
 12128 12218 12219    1
 12129 12218 12220    1
 12130 12218 12221    1
 12131 12221 12222    1
 12132 12221 12223    1
 12133 12221 12224    1
 12134 12224 12225    1
 12135 12224 12226    1
 12136 12224 12227    1
 12137 12227 12228    1
 12138 12227 12229    1
 12139 12227 12230    1
 12140 12230 12231    1
 12141 12230 12232    1
 12142 12230 12233    1
 12143 12233 12234    1
 12144 12233 12235    1
 12145 12233 12236    1
 12146 12236 12237    1
 12147 12236 12238    1
 12148 12236 12239    1
 12149 12239 12240    1
 12150 12239 12241    1
 12151 12239 12242    1
 12152 12242 12243    1
 12153 12242 12244    1
 12154 12242 12245    1
 12155 12245 12246    1
 12156 12245 12247    1
 12157 12245 12248    1
 12158 12248 12249    1
 12159 12248 12250    1
 12160 12248 12251    1
 12161 12251 12252    1
 12162 12251 12253    1
 12163 12251 12254    1
 12164 12254 12255    1
 12165 12254 12256    1
 12166 12254 12257    1
 12167 12257 12258    1
 12168 12257 12259    1
 12169 12257 12260    1
 12170 12261 12262    1
 12171 12261 12265    1
 12172 12261 12269    1
 12173 12261 12273    1
 12174 12262 12263    1
 12175 12262 12264    1
 12176 12262 12277    1
 12177 12265 12266    1
 12178 12265 12267    1
 12179 12265 12268    1
 12180 12269 12270    1
 12181 12269 12271    1
 12182 12269 12272    1
 12183 12273 12274    1
 12184 12273 12275    1
 12185 12273 12276    1
 12186 12277 12278    1
 12187 12277 12279    1
 12188 12277 12283    1
 12189 12280 12281    2
 12190 12280 12282    1
 12191 12280 12283    1
 12192 12280 12284    1
 12193 12284 12285    1
 12194 12285 12286    1
 12195 12285 12287    1
 12196 12285 12288    1
 12197 12288 12289    1
 12198 12288 12290    1
 12199 12288 12296    1
 12200 12290 12291    1
 12201 12291 12292    2
 12202 12291 12293    1
 12203 12293 12294    1
 12204 12293 12295    1
 12205 12293 12305    1
 12206 12296 12297    1
 12207 12296 12298    1
 12208 12296 12299    1
 12209 12299 12300    1
 12210 12300 12301    2
 12211 12300 12302    1
 12212 12302 12303    1
 12213 12302 12304    1
 12214 12302 12352    1
 12215 12305 12306    1
 12216 12305 12307    1
 12217 12305 12308    1
 12218 12308 12309    1
 12219 12308 12310    1
 12220 12308 12311    1
 12221 12311 12312    1
 12222 12311 12313    1
 12223 12311 12314    1
 12224 12314 12315    1
 12225 12314 12316    1
 12226 12314 12317    1
 12227 12317 12318    1
 12228 12317 12319    1
 12229 12317 12320    1
 12230 12320 12321    1
 12231 12320 12322    1
 12232 12320 12323    1
 12233 12323 12324    1
 12234 12323 12325    2
 12235 12325 12326    1
 12236 12325 12327    1
 12237 12327 12328    1
 12238 12327 12329    1
 12239 12327 12330    1
 12240 12330 12331    1
 12241 12330 12332    1
 12242 12330 12333    1
 12243 12333 12334    1
 12244 12333 12335    1
 12245 12333 12336    1
 12246 12336 12337    1
 12247 12336 12338    1
 12248 12336 12339    1
 12249 12339 12340    1
 12250 12339 12341    1
 12251 12339 12342    1
 12252 12342 12343    1
 12253 12342 12344    1
 12254 12342 12345    1
 12255 12345 12346    1
 12256 12345 12347    1
 12257 12345 12348    1
 12258 12348 12349    1
 12259 12348 12350    1
 12260 12348 12351    1
 12261 12352 12353    1
 12262 12352 12354    1
 12263 12352 12355    1
 12264 12355 12356    1
 12265 12355 12357    1
 12266 12355 12358    1
 12267 12358 12359    1
 12268 12358 12360    1
 12269 12358 12361    1
 12270 12361 12362    1
 12271 12361 12363    1
 12272 12361 12364    1
 12273 12364 12365    1
 12274 12364 12366    1
 12275 12364 12367    1
 12276 12367 12368    1
 12277 12367 12369    1
 12278 12367 12370    1
 12279 12370 12371    1
 12280 12370 12372    1
 12281 12370 12373    1
 12282 12373 12374    1
 12283 12373 12375    1
 12284 12373 12376    1
 12285 12376 12377    1
 12286 12376 12378    1
 12287 12376 12379    1
 12288 12379 12380    1
 12289 12379 12381    1
 12290 12379 12382    1
 12291 12382 12383    1
 12292 12382 12384    1
 12293 12382 12385    1
 12294 12385 12386    1
 12295 12385 12387    1
 12296 12385 12388    1
 12297 12388 12389    1
 12298 12388 12390    1
 12299 12388 12391    1
 12300 12391 12392    1
 12301 12391 12393    1
 12302 12391 12394    1
 12303 12395 12396    1
 12304 12395 12399    1
 12305 12395 12403    1
 12306 12395 12407    1
 12307 12396 12397    1
 12308 12396 12398    1
 12309 12396 12411    1
 12310 12399 12400    1
 12311 12399 12401    1
 12312 12399 12402    1
 12313 12403 12404    1
 12314 12403 12405    1
 12315 12403 12406    1
 12316 12407 12408    1
 12317 12407 12409    1
 12318 12407 12410    1
 12319 12411 12412    1
 12320 12411 12413    1
 12321 12411 12417    1
 12322 12414 12415    2
 12323 12414 12416    1
 12324 12414 12417    1
 12325 12414 12418    1
 12326 12418 12419    1
 12327 12419 12420    1
 12328 12419 12421    1
 12329 12419 12422    1
 12330 12422 12423    1
 12331 12422 12424    1
 12332 12422 12430    1
 12333 12424 12425    1
 12334 12425 12426    2
 12335 12425 12427    1
 12336 12427 12428    1
 12337 12427 12429    1
 12338 12427 12439    1
 12339 12430 12431    1
 12340 12430 12432    1
 12341 12430 12433    1
 12342 12433 12434    1
 12343 12434 12435    2
 12344 12434 12436    1
 12345 12436 12437    1
 12346 12436 12438    1
 12347 12436 12486    1
 12348 12439 12440    1
 12349 12439 12441    1
 12350 12439 12442    1
 12351 12442 12443    1
 12352 12442 12444    1
 12353 12442 12445    1
 12354 12445 12446    1
 12355 12445 12447    1
 12356 12445 12448    1
 12357 12448 12449    1
 12358 12448 12450    1
 12359 12448 12451    1
 12360 12451 12452    1
 12361 12451 12453    1
 12362 12451 12454    1
 12363 12454 12455    1
 12364 12454 12456    1
 12365 12454 12457    1
 12366 12457 12458    1
 12367 12457 12459    2
 12368 12459 12460    1
 12369 12459 12461    1
 12370 12461 12462    1
 12371 12461 12463    1
 12372 12461 12464    1
 12373 12464 12465    1
 12374 12464 12466    1
 12375 12464 12467    1
 12376 12467 12468    1
 12377 12467 12469    1
 12378 12467 12470    1
 12379 12470 12471    1
 12380 12470 12472    1
 12381 12470 12473    1
 12382 12473 12474    1
 12383 12473 12475    1
 12384 12473 12476    1
 12385 12476 12477    1
 12386 12476 12478    1
 12387 12476 12479    1
 12388 12479 12480    1
 12389 12479 12481    1
 12390 12479 12482    1
 12391 12482 12483    1
 12392 12482 12484    1
 12393 12482 12485    1
 12394 12486 12487    1
 12395 12486 12488    1
 12396 12486 12489    1
 12397 12489 12490    1
 12398 12489 12491    1
 12399 12489 12492    1
 12400 12492 12493    1
 12401 12492 12494    1
 12402 12492 12495    1
 12403 12495 12496    1
 12404 12495 12497    1
 12405 12495 12498    1
 12406 12498 12499    1
 12407 12498 12500    1
 12408 12498 12501    1
 12409 12501 12502    1
 12410 12501 12503    1
 12411 12501 12504    1
 12412 12504 12505    1
 12413 12504 12506    1
 12414 12504 12507    1
 12415 12507 12508    1
 12416 12507 12509    1
 12417 12507 12510    1
 12418 12510 12511    1
 12419 12510 12512    1
 12420 12510 12513    1
 12421 12513 12514    1
 12422 12513 12515    1
 12423 12513 12516    1
 12424 12516 12517    1
 12425 12516 12518    1
 12426 12516 12519    1
 12427 12519 12520    1
 12428 12519 12521    1
 12429 12519 12522    1
 12430 12522 12523    1
 12431 12522 12524    1
 12432 12522 12525    1
 12433 12525 12526    1
 12434 12525 12527    1
 12435 12525 12528    1
 12436 12529 12530    1
 12437 12529 12533    1
 12438 12529 12537    1
 12439 12529 12541    1
 12440 12530 12531    1
 12441 12530 12532    1
 12442 12530 12545    1
 12443 12533 12534    1
 12444 12533 12535    1
 12445 12533 12536    1
 12446 12537 12538    1
 12447 12537 12539    1
 12448 12537 12540    1
 12449 12541 12542    1
 12450 12541 12543    1
 12451 12541 12544    1
 12452 12545 12546    1
 12453 12545 12547    1
 12454 12545 12551    1
 12455 12548 12549    2
 12456 12548 12550    1
 12457 12548 12551    1
 12458 12548 12552    1
 12459 12552 12553    1
 12460 12553 12554    1
 12461 12553 12555    1
 12462 12553 12556    1
 12463 12556 12557    1
 12464 12556 12558    1
 12465 12556 12564    1
 12466 12558 12559    1
 12467 12559 12560    2
 12468 12559 12561    1
 12469 12561 12562    1
 12470 12561 12563    1
 12471 12561 12573    1
 12472 12564 12565    1
 12473 12564 12566    1
 12474 12564 12567    1
 12475 12567 12568    1
 12476 12568 12569    2
 12477 12568 12570    1
 12478 12570 12571    1
 12479 12570 12572    1
 12480 12570 12620    1
 12481 12573 12574    1
 12482 12573 12575    1
 12483 12573 12576    1
 12484 12576 12577    1
 12485 12576 12578    1
 12486 12576 12579    1
 12487 12579 12580    1
 12488 12579 12581    1
 12489 12579 12582    1
 12490 12582 12583    1
 12491 12582 12584    1
 12492 12582 12585    1
 12493 12585 12586    1
 12494 12585 12587    1
 12495 12585 12588    1
 12496 12588 12589    1
 12497 12588 12590    1
 12498 12588 12591    1
 12499 12591 12592    1
 12500 12591 12593    2
 12501 12593 12594    1
 12502 12593 12595    1
 12503 12595 12596    1
 12504 12595 12597    1
 12505 12595 12598    1
 12506 12598 12599    1
 12507 12598 12600    1
 12508 12598 12601    1
 12509 12601 12602    1
 12510 12601 12603    1
 12511 12601 12604    1
 12512 12604 12605    1
 12513 12604 12606    1
 12514 12604 12607    1
 12515 12607 12608    1
 12516 12607 12609    1
 12517 12607 12610    1
 12518 12610 12611    1
 12519 12610 12612    1
 12520 12610 12613    1
 12521 12613 12614    1
 12522 12613 12615    1
 12523 12613 12616    1
 12524 12616 12617    1
 12525 12616 12618    1
 12526 12616 12619    1
 12527 12620 12621    1
 12528 12620 12622    1
 12529 12620 12623    1
 12530 12623 12624    1
 12531 12623 12625    1
 12532 12623 12626    1
 12533 12626 12627    1
 12534 12626 12628    1
 12535 12626 12629    1
 12536 12629 12630    1
 12537 12629 12631    1
 12538 12629 12632    1
 12539 12632 12633    1
 12540 12632 12634    1
 12541 12632 12635    1
 12542 12635 12636    1
 12543 12635 12637    1
 12544 12635 12638    1
 12545 12638 12639    1
 12546 12638 12640    1
 12547 12638 12641    1
 12548 12641 12642    1
 12549 12641 12643    1
 12550 12641 12644    1
 12551 12644 12645    1
 12552 12644 12646    1
 12553 12644 12647    1
 12554 12647 12648    1
 12555 12647 12649    1
 12556 12647 12650    1
 12557 12650 12651    1
 12558 12650 12652    1
 12559 12650 12653    1
 12560 12653 12654    1
 12561 12653 12655    1
 12562 12653 12656    1
 12563 12656 12657    1
 12564 12656 12658    1
 12565 12656 12659    1
 12566 12659 12660    1
 12567 12659 12661    1
 12568 12659 12662    1
 12569 12663 12664    1
 12570 12663 12667    1
 12571 12663 12671    1
 12572 12663 12675    1
 12573 12664 12665    1
 12574 12664 12666    1
 12575 12664 12679    1
 12576 12667 12668    1
 12577 12667 12669    1
 12578 12667 12670    1
 12579 12671 12672    1
 12580 12671 12673    1
 12581 12671 12674    1
 12582 12675 12676    1
 12583 12675 12677    1
 12584 12675 12678    1
 12585 12679 12680    1
 12586 12679 12681    1
 12587 12679 12685    1
 12588 12682 12683    2
 12589 12682 12684    1
 12590 12682 12685    1
 12591 12682 12686    1
 12592 12686 12687    1
 12593 12687 12688    1
 12594 12687 12689    1
 12595 12687 12690    1
 12596 12690 12691    1
 12597 12690 12692    1
 12598 12690 12698    1
 12599 12692 12693    1
 12600 12693 12694    2
 12601 12693 12695    1
 12602 12695 12696    1
 12603 12695 12697    1
 12604 12695 12707    1
 12605 12698 12699    1
 12606 12698 12700    1
 12607 12698 12701    1
 12608 12701 12702    1
 12609 12702 12703    2
 12610 12702 12704    1
 12611 12704 12705    1
 12612 12704 12706    1
 12613 12704 12754    1
 12614 12707 12708    1
 12615 12707 12709    1
 12616 12707 12710    1
 12617 12710 12711    1
 12618 12710 12712    1
 12619 12710 12713    1
 12620 12713 12714    1
 12621 12713 12715    1
 12622 12713 12716    1
 12623 12716 12717    1
 12624 12716 12718    1
 12625 12716 12719    1
 12626 12719 12720    1
 12627 12719 12721    1
 12628 12719 12722    1
 12629 12722 12723    1
 12630 12722 12724    1
 12631 12722 12725    1
 12632 12725 12726    1
 12633 12725 12727    2
 12634 12727 12728    1
 12635 12727 12729    1
 12636 12729 12730    1
 12637 12729 12731    1
 12638 12729 12732    1
 12639 12732 12733    1
 12640 12732 12734    1
 12641 12732 12735    1
 12642 12735 12736    1
 12643 12735 12737    1
 12644 12735 12738    1
 12645 12738 12739    1
 12646 12738 12740    1
 12647 12738 12741    1
 12648 12741 12742    1
 12649 12741 12743    1
 12650 12741 12744    1
 12651 12744 12745    1
 12652 12744 12746    1
 12653 12744 12747    1
 12654 12747 12748    1
 12655 12747 12749    1
 12656 12747 12750    1
 12657 12750 12751    1
 12658 12750 12752    1
 12659 12750 12753    1
 12660 12754 12755    1
 12661 12754 12756    1
 12662 12754 12757    1
 12663 12757 12758    1
 12664 12757 12759    1
 12665 12757 12760    1
 12666 12760 12761    1
 12667 12760 12762    1
 12668 12760 12763    1
 12669 12763 12764    1
 12670 12763 12765    1
 12671 12763 12766    1
 12672 12766 12767    1
 12673 12766 12768    1
 12674 12766 12769    1
 12675 12769 12770    1
 12676 12769 12771    1
 12677 12769 12772    1
 12678 12772 12773    1
 12679 12772 12774    1
 12680 12772 12775    1
 12681 12775 12776    1
 12682 12775 12777    1
 12683 12775 12778    1
 12684 12778 12779    1
 12685 12778 12780    1
 12686 12778 12781    1
 12687 12781 12782    1
 12688 12781 12783    1
 12689 12781 12784    1
 12690 12784 12785    1
 12691 12784 12786    1
 12692 12784 12787    1
 12693 12787 12788    1
 12694 12787 12789    1
 12695 12787 12790    1
 12696 12790 12791    1
 12697 12790 12792    1
 12698 12790 12793    1
 12699 12793 12794    1
 12700 12793 12795    1
 12701 12793 12796    1
 12702 12797 12798    1
 12703 12797 12801    1
 12704 12797 12805    1
 12705 12797 12809    1
 12706 12798 12799    1
 12707 12798 12800    1
 12708 12798 12813    1
 12709 12801 12802    1
 12710 12801 12803    1
 12711 12801 12804    1
 12712 12805 12806    1
 12713 12805 12807    1
 12714 12805 12808    1
 12715 12809 12810    1
 12716 12809 12811    1
 12717 12809 12812    1
 12718 12813 12814    1
 12719 12813 12815    1
 12720 12813 12819    1
 12721 12816 12817    2
 12722 12816 12818    1
 12723 12816 12819    1
 12724 12816 12820    1
 12725 12820 12821    1
 12726 12821 12822    1
 12727 12821 12823    1
 12728 12821 12824    1
 12729 12824 12825    1
 12730 12824 12826    1
 12731 12824 12832    1
 12732 12826 12827    1
 12733 12827 12828    2
 12734 12827 12829    1
 12735 12829 12830    1
 12736 12829 12831    1
 12737 12829 12841    1
 12738 12832 12833    1
 12739 12832 12834    1
 12740 12832 12835    1
 12741 12835 12836    1
 12742 12836 12837    2
 12743 12836 12838    1
 12744 12838 12839    1
 12745 12838 12840    1
 12746 12838 12888    1
 12747 12841 12842    1
 12748 12841 12843    1
 12749 12841 12844    1
 12750 12844 12845    1
 12751 12844 12846    1
 12752 12844 12847    1
 12753 12847 12848    1
 12754 12847 12849    1
 12755 12847 12850    1
 12756 12850 12851    1
 12757 12850 12852    1
 12758 12850 12853    1
 12759 12853 12854    1
 12760 12853 12855    1
 12761 12853 12856    1
 12762 12856 12857    1
 12763 12856 12858    1
 12764 12856 12859    1
 12765 12859 12860    1
 12766 12859 12861    2
 12767 12861 12862    1
 12768 12861 12863    1
 12769 12863 12864    1
 12770 12863 12865    1
 12771 12863 12866    1
 12772 12866 12867    1
 12773 12866 12868    1
 12774 12866 12869    1
 12775 12869 12870    1
 12776 12869 12871    1
 12777 12869 12872    1
 12778 12872 12873    1
 12779 12872 12874    1
 12780 12872 12875    1
 12781 12875 12876    1
 12782 12875 12877    1
 12783 12875 12878    1
 12784 12878 12879    1
 12785 12878 12880    1
 12786 12878 12881    1
 12787 12881 12882    1
 12788 12881 12883    1
 12789 12881 12884    1
 12790 12884 12885    1
 12791 12884 12886    1
 12792 12884 12887    1
 12793 12888 12889    1
 12794 12888 12890    1
 12795 12888 12891    1
 12796 12891 12892    1
 12797 12891 12893    1
 12798 12891 12894    1
 12799 12894 12895    1
 12800 12894 12896    1
 12801 12894 12897    1
 12802 12897 12898    1
 12803 12897 12899    1
 12804 12897 12900    1
 12805 12900 12901    1
 12806 12900 12902    1
 12807 12900 12903    1
 12808 12903 12904    1
 12809 12903 12905    1
 12810 12903 12906    1
 12811 12906 12907    1
 12812 12906 12908    1
 12813 12906 12909    1
 12814 12909 12910    1
 12815 12909 12911    1
 12816 12909 12912    1
 12817 12912 12913    1
 12818 12912 12914    1
 12819 12912 12915    1
 12820 12915 12916    1
 12821 12915 12917    1
 12822 12915 12918    1
 12823 12918 12919    1
 12824 12918 12920    1
 12825 12918 12921    1
 12826 12921 12922    1
 12827 12921 12923    1
 12828 12921 12924    1
 12829 12924 12925    1
 12830 12924 12926    1
 12831 12924 12927    1
 12832 12927 12928    1
 12833 12927 12929    1
 12834 12927 12930    1
 12835 12931 12932    1
 12836 12931 12935    1
 12837 12931 12939    1
 12838 12931 12943    1
 12839 12932 12933    1
 12840 12932 12934    1
 12841 12932 12947    1
 12842 12935 12936    1
 12843 12935 12937    1
 12844 12935 12938    1
 12845 12939 12940    1
 12846 12939 12941    1
 12847 12939 12942    1
 12848 12943 12944    1
 12849 12943 12945    1
 12850 12943 12946    1
 12851 12947 12948    1
 12852 12947 12949    1
 12853 12947 12953    1
 12854 12950 12951    2
 12855 12950 12952    1
 12856 12950 12953    1
 12857 12950 12954    1
 12858 12954 12955    1
 12859 12955 12956    1
 12860 12955 12957    1
 12861 12955 12958    1
 12862 12958 12959    1
 12863 12958 12960    1
 12864 12958 12966    1
 12865 12960 12961    1
 12866 12961 12962    2
 12867 12961 12963    1
 12868 12963 12964    1
 12869 12963 12965    1
 12870 12963 12975    1
 12871 12966 12967    1
 12872 12966 12968    1
 12873 12966 12969    1
 12874 12969 12970    1
 12875 12970 12971    2
 12876 12970 12972    1
 12877 12972 12973    1
 12878 12972 12974    1
 12879 12972 13022    1
 12880 12975 12976    1
 12881 12975 12977    1
 12882 12975 12978    1
 12883 12978 12979    1
 12884 12978 12980    1
 12885 12978 12981    1
 12886 12981 12982    1
 12887 12981 12983    1
 12888 12981 12984    1
 12889 12984 12985    1
 12890 12984 12986    1
 12891 12984 12987    1
 12892 12987 12988    1
 12893 12987 12989    1
 12894 12987 12990    1
 12895 12990 12991    1
 12896 12990 12992    1
 12897 12990 12993    1
 12898 12993 12994    1
 12899 12993 12995    2
 12900 12995 12996    1
 12901 12995 12997    1
 12902 12997 12998    1
 12903 12997 12999    1
 12904 12997 13000    1
 12905 13000 13001    1
 12906 13000 13002    1
 12907 13000 13003    1
 12908 13003 13004    1
 12909 13003 13005    1
 12910 13003 13006    1
 12911 13006 13007    1
 12912 13006 13008    1
 12913 13006 13009    1
 12914 13009 13010    1
 12915 13009 13011    1
 12916 13009 13012    1
 12917 13012 13013    1
 12918 13012 13014    1
 12919 13012 13015    1
 12920 13015 13016    1
 12921 13015 13017    1
 12922 13015 13018    1
 12923 13018 13019    1
 12924 13018 13020    1
 12925 13018 13021    1
 12926 13022 13023    1
 12927 13022 13024    1
 12928 13022 13025    1
 12929 13025 13026    1
 12930 13025 13027    1
 12931 13025 13028    1
 12932 13028 13029    1
 12933 13028 13030    1
 12934 13028 13031    1
 12935 13031 13032    1
 12936 13031 13033    1
 12937 13031 13034    1
 12938 13034 13035    1
 12939 13034 13036    1
 12940 13034 13037    1
 12941 13037 13038    1
 12942 13037 13039    1
 12943 13037 13040    1
 12944 13040 13041    1
 12945 13040 13042    1
 12946 13040 13043    1
 12947 13043 13044    1
 12948 13043 13045    1
 12949 13043 13046    1
 12950 13046 13047    1
 12951 13046 13048    1
 12952 13046 13049    1
 12953 13049 13050    1
 12954 13049 13051    1
 12955 13049 13052    1
 12956 13052 13053    1
 12957 13052 13054    1
 12958 13052 13055    1
 12959 13055 13056    1
 12960 13055 13057    1
 12961 13055 13058    1
 12962 13058 13059    1
 12963 13058 13060    1
 12964 13058 13061    1
 12965 13061 13062    1
 12966 13061 13063    1
 12967 13061 13064    1
 12968 13065 13066    1
 12969 13065 13069    1
 12970 13065 13073    1
 12971 13065 13077    1
 12972 13066 13067    1
 12973 13066 13068    1
 12974 13066 13081    1
 12975 13069 13070    1
 12976 13069 13071    1
 12977 13069 13072    1
 12978 13073 13074    1
 12979 13073 13075    1
 12980 13073 13076    1
 12981 13077 13078    1
 12982 13077 13079    1
 12983 13077 13080    1
 12984 13081 13082    1
 12985 13081 13083    1
 12986 13081 13087    1
 12987 13084 13085    2
 12988 13084 13086    1
 12989 13084 13087    1
 12990 13084 13088    1
 12991 13088 13089    1
 12992 13089 13090    1
 12993 13089 13091    1
 12994 13089 13092    1
 12995 13092 13093    1
 12996 13092 13094    1
 12997 13092 13100    1
 12998 13094 13095    1
 12999 13095 13096    2
 13000 13095 13097    1
 13001 13097 13098    1
 13002 13097 13099    1
 13003 13097 13109    1
 13004 13100 13101    1
 13005 13100 13102    1
 13006 13100 13103    1
 13007 13103 13104    1
 13008 13104 13105    2
 13009 13104 13106    1
 13010 13106 13107    1
 13011 13106 13108    1
 13012 13106 13156    1
 13013 13109 13110    1
 13014 13109 13111    1
 13015 13109 13112    1
 13016 13112 13113    1
 13017 13112 13114    1
 13018 13112 13115    1
 13019 13115 13116    1
 13020 13115 13117    1
 13021 13115 13118    1
 13022 13118 13119    1
 13023 13118 13120    1
 13024 13118 13121    1
 13025 13121 13122    1
 13026 13121 13123    1
 13027 13121 13124    1
 13028 13124 13125    1
 13029 13124 13126    1
 13030 13124 13127    1
 13031 13127 13128    1
 13032 13127 13129    2
 13033 13129 13130    1
 13034 13129 13131    1
 13035 13131 13132    1
 13036 13131 13133    1
 13037 13131 13134    1
 13038 13134 13135    1
 13039 13134 13136    1
 13040 13134 13137    1
 13041 13137 13138    1
 13042 13137 13139    1
 13043 13137 13140    1
 13044 13140 13141    1
 13045 13140 13142    1
 13046 13140 13143    1
 13047 13143 13144    1
 13048 13143 13145    1
 13049 13143 13146    1
 13050 13146 13147    1
 13051 13146 13148    1
 13052 13146 13149    1
 13053 13149 13150    1
 13054 13149 13151    1
 13055 13149 13152    1
 13056 13152 13153    1
 13057 13152 13154    1
 13058 13152 13155    1
 13059 13156 13157    1
 13060 13156 13158    1
 13061 13156 13159    1
 13062 13159 13160    1
 13063 13159 13161    1
 13064 13159 13162    1
 13065 13162 13163    1
 13066 13162 13164    1
 13067 13162 13165    1
 13068 13165 13166    1
 13069 13165 13167    1
 13070 13165 13168    1
 13071 13168 13169    1
 13072 13168 13170    1
 13073 13168 13171    1
 13074 13171 13172    1
 13075 13171 13173    1
 13076 13171 13174    1
 13077 13174 13175    1
 13078 13174 13176    1
 13079 13174 13177    1
 13080 13177 13178    1
 13081 13177 13179    1
 13082 13177 13180    1
 13083 13180 13181    1
 13084 13180 13182    1
 13085 13180 13183    1
 13086 13183 13184    1
 13087 13183 13185    1
 13088 13183 13186    1
 13089 13186 13187    1
 13090 13186 13188    1
 13091 13186 13189    1
 13092 13189 13190    1
 13093 13189 13191    1
 13094 13189 13192    1
 13095 13192 13193    1
 13096 13192 13194    1
 13097 13192 13195    1
 13098 13195 13196    1
 13099 13195 13197    1
 13100 13195 13198    1
 13101 13199 13200    1
 13102 13199 13203    1
 13103 13199 13207    1
 13104 13199 13211    1
 13105 13200 13201    1
 13106 13200 13202    1
 13107 13200 13215    1
 13108 13203 13204    1
 13109 13203 13205    1
 13110 13203 13206    1
 13111 13207 13208    1
 13112 13207 13209    1
 13113 13207 13210    1
 13114 13211 13212    1
 13115 13211 13213    1
 13116 13211 13214    1
 13117 13215 13216    1
 13118 13215 13217    1
 13119 13215 13221    1
 13120 13218 13219    2
 13121 13218 13220    1
 13122 13218 13221    1
 13123 13218 13222    1
 13124 13222 13223    1
 13125 13223 13224    1
 13126 13223 13225    1
 13127 13223 13226    1
 13128 13226 13227    1
 13129 13226 13228    1
 13130 13226 13234    1
 13131 13228 13229    1
 13132 13229 13230    2
 13133 13229 13231    1
 13134 13231 13232    1
 13135 13231 13233    1
 13136 13231 13243    1
 13137 13234 13235    1
 13138 13234 13236    1
 13139 13234 13237    1
 13140 13237 13238    1
 13141 13238 13239    2
 13142 13238 13240    1
 13143 13240 13241    1
 13144 13240 13242    1
 13145 13240 13290    1
 13146 13243 13244    1
 13147 13243 13245    1
 13148 13243 13246    1
 13149 13246 13247    1
 13150 13246 13248    1
 13151 13246 13249    1
 13152 13249 13250    1
 13153 13249 13251    1
 13154 13249 13252    1
 13155 13252 13253    1
 13156 13252 13254    1
 13157 13252 13255    1
 13158 13255 13256    1
 13159 13255 13257    1
 13160 13255 13258    1
 13161 13258 13259    1
 13162 13258 13260    1
 13163 13258 13261    1
 13164 13261 13262    1
 13165 13261 13263    2
 13166 13263 13264    1
 13167 13263 13265    1
 13168 13265 13266    1
 13169 13265 13267    1
 13170 13265 13268    1
 13171 13268 13269    1
 13172 13268 13270    1
 13173 13268 13271    1
 13174 13271 13272    1
 13175 13271 13273    1
 13176 13271 13274    1
 13177 13274 13275    1
 13178 13274 13276    1
 13179 13274 13277    1
 13180 13277 13278    1
 13181 13277 13279    1
 13182 13277 13280    1
 13183 13280 13281    1
 13184 13280 13282    1
 13185 13280 13283    1
 13186 13283 13284    1
 13187 13283 13285    1
 13188 13283 13286    1
 13189 13286 13287    1
 13190 13286 13288    1
 13191 13286 13289    1
 13192 13290 13291    1
 13193 13290 13292    1
 13194 13290 13293    1
 13195 13293 13294    1
 13196 13293 13295    1
 13197 13293 13296    1
 13198 13296 13297    1
 13199 13296 13298    1
 13200 13296 13299    1
 13201 13299 13300    1
 13202 13299 13301    1
 13203 13299 13302    1
 13204 13302 13303    1
 13205 13302 13304    1
 13206 13302 13305    1
 13207 13305 13306    1
 13208 13305 13307    1
 13209 13305 13308    1
 13210 13308 13309    1
 13211 13308 13310    1
 13212 13308 13311    1
 13213 13311 13312    1
 13214 13311 13313    1
 13215 13311 13314    1
 13216 13314 13315    1
 13217 13314 13316    1
 13218 13314 13317    1
 13219 13317 13318    1
 13220 13317 13319    1
 13221 13317 13320    1
 13222 13320 13321    1
 13223 13320 13322    1
 13224 13320 13323    1
 13225 13323 13324    1
 13226 13323 13325    1
 13227 13323 13326    1
 13228 13326 13327    1
 13229 13326 13328    1
 13230 13326 13329    1
 13231 13329 13330    1
 13232 13329 13331    1
 13233 13329 13332    1
 13234 13333 13334    1
 13235 13333 13337    1
 13236 13333 13341    1
 13237 13333 13345    1
 13238 13334 13335    1
 13239 13334 13336    1
 13240 13334 13349    1
 13241 13337 13338    1
 13242 13337 13339    1
 13243 13337 13340    1
 13244 13341 13342    1
 13245 13341 13343    1
 13246 13341 13344    1
 13247 13345 13346    1
 13248 13345 13347    1
 13249 13345 13348    1
 13250 13349 13350    1
 13251 13349 13351    1
 13252 13349 13355    1
 13253 13352 13353    2
 13254 13352 13354    1
 13255 13352 13355    1
 13256 13352 13356    1
 13257 13356 13357    1
 13258 13357 13358    1
 13259 13357 13359    1
 13260 13357 13360    1
 13261 13360 13361    1
 13262 13360 13362    1
 13263 13360 13368    1
 13264 13362 13363    1
 13265 13363 13364    2
 13266 13363 13365    1
 13267 13365 13366    1
 13268 13365 13367    1
 13269 13365 13377    1
 13270 13368 13369    1
 13271 13368 13370    1
 13272 13368 13371    1
 13273 13371 13372    1
 13274 13372 13373    2
 13275 13372 13374    1
 13276 13374 13375    1
 13277 13374 13376    1
 13278 13374 13424    1
 13279 13377 13378    1
 13280 13377 13379    1
 13281 13377 13380    1
 13282 13380 13381    1
 13283 13380 13382    1
 13284 13380 13383    1
 13285 13383 13384    1
 13286 13383 13385    1
 13287 13383 13386    1
 13288 13386 13387    1
 13289 13386 13388    1
 13290 13386 13389    1
 13291 13389 13390    1
 13292 13389 13391    1
 13293 13389 13392    1
 13294 13392 13393    1
 13295 13392 13394    1
 13296 13392 13395    1
 13297 13395 13396    1
 13298 13395 13397    2
 13299 13397 13398    1
 13300 13397 13399    1
 13301 13399 13400    1
 13302 13399 13401    1
 13303 13399 13402    1
 13304 13402 13403    1
 13305 13402 13404    1
 13306 13402 13405    1
 13307 13405 13406    1
 13308 13405 13407    1
 13309 13405 13408    1
 13310 13408 13409    1
 13311 13408 13410    1
 13312 13408 13411    1
 13313 13411 13412    1
 13314 13411 13413    1
 13315 13411 13414    1
 13316 13414 13415    1
 13317 13414 13416    1
 13318 13414 13417    1
 13319 13417 13418    1
 13320 13417 13419    1
 13321 13417 13420    1
 13322 13420 13421    1
 13323 13420 13422    1
 13324 13420 13423    1
 13325 13424 13425    1
 13326 13424 13426    1
 13327 13424 13427    1
 13328 13427 13428    1
 13329 13427 13429    1
 13330 13427 13430    1
 13331 13430 13431    1
 13332 13430 13432    1
 13333 13430 13433    1
 13334 13433 13434    1
 13335 13433 13435    1
 13336 13433 13436    1
 13337 13436 13437    1
 13338 13436 13438    1
 13339 13436 13439    1
 13340 13439 13440    1
 13341 13439 13441    1
 13342 13439 13442    1
 13343 13442 13443    1
 13344 13442 13444    1
 13345 13442 13445    1
 13346 13445 13446    1
 13347 13445 13447    1
 13348 13445 13448    1
 13349 13448 13449    1
 13350 13448 13450    1
 13351 13448 13451    1
 13352 13451 13452    1
 13353 13451 13453    1
 13354 13451 13454    1
 13355 13454 13455    1
 13356 13454 13456    1
 13357 13454 13457    1
 13358 13457 13458    1
 13359 13457 13459    1
 13360 13457 13460    1
 13361 13460 13461    1
 13362 13460 13462    1
 13363 13460 13463    1
 13364 13463 13464    1
 13365 13463 13465    1
 13366 13463 13466    1
 13367 13467 13468    1
 13368 13467 13471    1
 13369 13467 13475    1
 13370 13467 13479    1
 13371 13468 13469    1
 13372 13468 13470    1
 13373 13468 13483    1
 13374 13471 13472    1
 13375 13471 13473    1
 13376 13471 13474    1
 13377 13475 13476    1
 13378 13475 13477    1
 13379 13475 13478    1
 13380 13479 13480    1
 13381 13479 13481    1
 13382 13479 13482    1
 13383 13483 13484    1
 13384 13483 13485    1
 13385 13483 13489    1
 13386 13486 13487    2
 13387 13486 13488    1
 13388 13486 13489    1
 13389 13486 13490    1
 13390 13490 13491    1
 13391 13491 13492    1
 13392 13491 13493    1
 13393 13491 13494    1
 13394 13494 13495    1
 13395 13494 13496    1
 13396 13494 13502    1
 13397 13496 13497    1
 13398 13497 13498    2
 13399 13497 13499    1
 13400 13499 13500    1
 13401 13499 13501    1
 13402 13499 13511    1
 13403 13502 13503    1
 13404 13502 13504    1
 13405 13502 13505    1
 13406 13505 13506    1
 13407 13506 13507    2
 13408 13506 13508    1
 13409 13508 13509    1
 13410 13508 13510    1
 13411 13508 13558    1
 13412 13511 13512    1
 13413 13511 13513    1
 13414 13511 13514    1
 13415 13514 13515    1
 13416 13514 13516    1
 13417 13514 13517    1
 13418 13517 13518    1
 13419 13517 13519    1
 13420 13517 13520    1
 13421 13520 13521    1
 13422 13520 13522    1
 13423 13520 13523    1
 13424 13523 13524    1
 13425 13523 13525    1
 13426 13523 13526    1
 13427 13526 13527    1
 13428 13526 13528    1
 13429 13526 13529    1
 13430 13529 13530    1
 13431 13529 13531    2
 13432 13531 13532    1
 13433 13531 13533    1
 13434 13533 13534    1
 13435 13533 13535    1
 13436 13533 13536    1
 13437 13536 13537    1
 13438 13536 13538    1
 13439 13536 13539    1
 13440 13539 13540    1
 13441 13539 13541    1
 13442 13539 13542    1
 13443 13542 13543    1
 13444 13542 13544    1
 13445 13542 13545    1
 13446 13545 13546    1
 13447 13545 13547    1
 13448 13545 13548    1
 13449 13548 13549    1
 13450 13548 13550    1
 13451 13548 13551    1
 13452 13551 13552    1
 13453 13551 13553    1
 13454 13551 13554    1
 13455 13554 13555    1
 13456 13554 13556    1
 13457 13554 13557    1
 13458 13558 13559    1
 13459 13558 13560    1
 13460 13558 13561    1
 13461 13561 13562    1
 13462 13561 13563    1
 13463 13561 13564    1
 13464 13564 13565    1
 13465 13564 13566    1
 13466 13564 13567    1
 13467 13567 13568    1
 13468 13567 13569    1
 13469 13567 13570    1
 13470 13570 13571    1
 13471 13570 13572    1
 13472 13570 13573    1
 13473 13573 13574    1
 13474 13573 13575    1
 13475 13573 13576    1
 13476 13576 13577    1
 13477 13576 13578    1
 13478 13576 13579    1
 13479 13579 13580    1
 13480 13579 13581    1
 13481 13579 13582    1
 13482 13582 13583    1
 13483 13582 13584    1
 13484 13582 13585    1
 13485 13585 13586    1
 13486 13585 13587    1
 13487 13585 13588    1
 13488 13588 13589    1
 13489 13588 13590    1
 13490 13588 13591    1
 13491 13591 13592    1
 13492 13591 13593    1
 13493 13591 13594    1
 13494 13594 13595    1
 13495 13594 13596    1
 13496 13594 13597    1
 13497 13597 13598    1
 13498 13597 13599    1
 13499 13597 13600    1
 13500 13601 13602    1
 13501 13601 13605    1
 13502 13601 13609    1
 13503 13601 13613    1
 13504 13602 13603    1
 13505 13602 13604    1
 13506 13602 13617    1
 13507 13605 13606    1
 13508 13605 13607    1
 13509 13605 13608    1
 13510 13609 13610    1
 13511 13609 13611    1
 13512 13609 13612    1
 13513 13613 13614    1
 13514 13613 13615    1
 13515 13613 13616    1
 13516 13617 13618    1
 13517 13617 13619    1
 13518 13617 13623    1
 13519 13620 13621    2
 13520 13620 13622    1
 13521 13620 13623    1
 13522 13620 13624    1
 13523 13624 13625    1
 13524 13625 13626    1
 13525 13625 13627    1
 13526 13625 13628    1
 13527 13628 13629    1
 13528 13628 13630    1
 13529 13628 13636    1
 13530 13630 13631    1
 13531 13631 13632    2
 13532 13631 13633    1
 13533 13633 13634    1
 13534 13633 13635    1
 13535 13633 13645    1
 13536 13636 13637    1
 13537 13636 13638    1
 13538 13636 13639    1
 13539 13639 13640    1
 13540 13640 13641    2
 13541 13640 13642    1
 13542 13642 13643    1
 13543 13642 13644    1
 13544 13642 13692    1
 13545 13645 13646    1
 13546 13645 13647    1
 13547 13645 13648    1
 13548 13648 13649    1
 13549 13648 13650    1
 13550 13648 13651    1
 13551 13651 13652    1
 13552 13651 13653    1
 13553 13651 13654    1
 13554 13654 13655    1
 13555 13654 13656    1
 13556 13654 13657    1
 13557 13657 13658    1
 13558 13657 13659    1
 13559 13657 13660    1
 13560 13660 13661    1
 13561 13660 13662    1
 13562 13660 13663    1
 13563 13663 13664    1
 13564 13663 13665    2
 13565 13665 13666    1
 13566 13665 13667    1
 13567 13667 13668    1
 13568 13667 13669    1
 13569 13667 13670    1
 13570 13670 13671    1
 13571 13670 13672    1
 13572 13670 13673    1
 13573 13673 13674    1
 13574 13673 13675    1
 13575 13673 13676    1
 13576 13676 13677    1
 13577 13676 13678    1
 13578 13676 13679    1
 13579 13679 13680    1
 13580 13679 13681    1
 13581 13679 13682    1
 13582 13682 13683    1
 13583 13682 13684    1
 13584 13682 13685    1
 13585 13685 13686    1
 13586 13685 13687    1
 13587 13685 13688    1
 13588 13688 13689    1
 13589 13688 13690    1
 13590 13688 13691    1
 13591 13692 13693    1
 13592 13692 13694    1
 13593 13692 13695    1
 13594 13695 13696    1
 13595 13695 13697    1
 13596 13695 13698    1
 13597 13698 13699    1
 13598 13698 13700    1
 13599 13698 13701    1
 13600 13701 13702    1
 13601 13701 13703    1
 13602 13701 13704    1
 13603 13704 13705    1
 13604 13704 13706    1
 13605 13704 13707    1
 13606 13707 13708    1
 13607 13707 13709    1
 13608 13707 13710    1
 13609 13710 13711    1
 13610 13710 13712    1
 13611 13710 13713    1
 13612 13713 13714    1
 13613 13713 13715    1
 13614 13713 13716    1
 13615 13716 13717    1
 13616 13716 13718    1
 13617 13716 13719    1
 13618 13719 13720    1
 13619 13719 13721    1
 13620 13719 13722    1
 13621 13722 13723    1
 13622 13722 13724    1
 13623 13722 13725    1
 13624 13725 13726    1
 13625 13725 13727    1
 13626 13725 13728    1
 13627 13728 13729    1
 13628 13728 13730    1
 13629 13728 13731    1
 13630 13731 13732    1
 13631 13731 13733    1
 13632 13731 13734    1
 13633 13735 13736    1
 13634 13735 13739    1
 13635 13735 13743    1
 13636 13735 13747    1
 13637 13736 13737    1
 13638 13736 13738    1
 13639 13736 13751    1
 13640 13739 13740    1
 13641 13739 13741    1
 13642 13739 13742    1
 13643 13743 13744    1
 13644 13743 13745    1
 13645 13743 13746    1
 13646 13747 13748    1
 13647 13747 13749    1
 13648 13747 13750    1
 13649 13751 13752    1
 13650 13751 13753    1
 13651 13751 13757    1
 13652 13754 13755    2
 13653 13754 13756    1
 13654 13754 13757    1
 13655 13754 13758    1
 13656 13758 13759    1
 13657 13759 13760    1
 13658 13759 13761    1
 13659 13759 13762    1
 13660 13762 13763    1
 13661 13762 13764    1
 13662 13762 13770    1
 13663 13764 13765    1
 13664 13765 13766    2
 13665 13765 13767    1
 13666 13767 13768    1
 13667 13767 13769    1
 13668 13767 13779    1
 13669 13770 13771    1
 13670 13770 13772    1
 13671 13770 13773    1
 13672 13773 13774    1
 13673 13774 13775    2
 13674 13774 13776    1
 13675 13776 13777    1
 13676 13776 13778    1
 13677 13776 13826    1
 13678 13779 13780    1
 13679 13779 13781    1
 13680 13779 13782    1
 13681 13782 13783    1
 13682 13782 13784    1
 13683 13782 13785    1
 13684 13785 13786    1
 13685 13785 13787    1
 13686 13785 13788    1
 13687 13788 13789    1
 13688 13788 13790    1
 13689 13788 13791    1
 13690 13791 13792    1
 13691 13791 13793    1
 13692 13791 13794    1
 13693 13794 13795    1
 13694 13794 13796    1
 13695 13794 13797    1
 13696 13797 13798    1
 13697 13797 13799    2
 13698 13799 13800    1
 13699 13799 13801    1
 13700 13801 13802    1
 13701 13801 13803    1
 13702 13801 13804    1
 13703 13804 13805    1
 13704 13804 13806    1
 13705 13804 13807    1
 13706 13807 13808    1
 13707 13807 13809    1
 13708 13807 13810    1
 13709 13810 13811    1
 13710 13810 13812    1
 13711 13810 13813    1
 13712 13813 13814    1
 13713 13813 13815    1
 13714 13813 13816    1
 13715 13816 13817    1
 13716 13816 13818    1
 13717 13816 13819    1
 13718 13819 13820    1
 13719 13819 13821    1
 13720 13819 13822    1
 13721 13822 13823    1
 13722 13822 13824    1
 13723 13822 13825    1
 13724 13826 13827    1
 13725 13826 13828    1
 13726 13826 13829    1
 13727 13829 13830    1
 13728 13829 13831    1
 13729 13829 13832    1
 13730 13832 13833    1
 13731 13832 13834    1
 13732 13832 13835    1
 13733 13835 13836    1
 13734 13835 13837    1
 13735 13835 13838    1
 13736 13838 13839    1
 13737 13838 13840    1
 13738 13838 13841    1
 13739 13841 13842    1
 13740 13841 13843    1
 13741 13841 13844    1
 13742 13844 13845    1
 13743 13844 13846    1
 13744 13844 13847    1
 13745 13847 13848    1
 13746 13847 13849    1
 13747 13847 13850    1
 13748 13850 13851    1
 13749 13850 13852    1
 13750 13850 13853    1
 13751 13853 13854    1
 13752 13853 13855    1
 13753 13853 13856    1
 13754 13856 13857    1
 13755 13856 13858    1
 13756 13856 13859    1
 13757 13859 13860    1
 13758 13859 13861    1
 13759 13859 13862    1
 13760 13862 13863    1
 13761 13862 13864    1
 13762 13862 13865    1
 13763 13865 13866    1
 13764 13865 13867    1
 13765 13865 13868    1
 13766 13869 13870    1
 13767 13869 13873    1
 13768 13869 13877    1
 13769 13869 13881    1
 13770 13870 13871    1
 13771 13870 13872    1
 13772 13870 13885    1
 13773 13873 13874    1
 13774 13873 13875    1
 13775 13873 13876    1
 13776 13877 13878    1
 13777 13877 13879    1
 13778 13877 13880    1
 13779 13881 13882    1
 13780 13881 13883    1
 13781 13881 13884    1
 13782 13885 13886    1
 13783 13885 13887    1
 13784 13885 13891    1
 13785 13888 13889    2
 13786 13888 13890    1
 13787 13888 13891    1
 13788 13888 13892    1
 13789 13892 13893    1
 13790 13893 13894    1
 13791 13893 13895    1
 13792 13893 13896    1
 13793 13896 13897    1
 13794 13896 13898    1
 13795 13896 13904    1
 13796 13898 13899    1
 13797 13899 13900    2
 13798 13899 13901    1
 13799 13901 13902    1
 13800 13901 13903    1
 13801 13901 13913    1
 13802 13904 13905    1
 13803 13904 13906    1
 13804 13904 13907    1
 13805 13907 13908    1
 13806 13908 13909    2
 13807 13908 13910    1
 13808 13910 13911    1
 13809 13910 13912    1
 13810 13910 13960    1
 13811 13913 13914    1
 13812 13913 13915    1
 13813 13913 13916    1
 13814 13916 13917    1
 13815 13916 13918    1
 13816 13916 13919    1
 13817 13919 13920    1
 13818 13919 13921    1
 13819 13919 13922    1
 13820 13922 13923    1
 13821 13922 13924    1
 13822 13922 13925    1
 13823 13925 13926    1
 13824 13925 13927    1
 13825 13925 13928    1
 13826 13928 13929    1
 13827 13928 13930    1
 13828 13928 13931    1
 13829 13931 13932    1
 13830 13931 13933    2
 13831 13933 13934    1
 13832 13933 13935    1
 13833 13935 13936    1
 13834 13935 13937    1
 13835 13935 13938    1
 13836 13938 13939    1
 13837 13938 13940    1
 13838 13938 13941    1
 13839 13941 13942    1
 13840 13941 13943    1
 13841 13941 13944    1
 13842 13944 13945    1
 13843 13944 13946    1
 13844 13944 13947    1
 13845 13947 13948    1
 13846 13947 13949    1
 13847 13947 13950    1
 13848 13950 13951    1
 13849 13950 13952    1
 13850 13950 13953    1
 13851 13953 13954    1
 13852 13953 13955    1
 13853 13953 13956    1
 13854 13956 13957    1
 13855 13956 13958    1
 13856 13956 13959    1
 13857 13960 13961    1
 13858 13960 13962    1
 13859 13960 13963    1
 13860 13963 13964    1
 13861 13963 13965    1
 13862 13963 13966    1
 13863 13966 13967    1
 13864 13966 13968    1
 13865 13966 13969    1
 13866 13969 13970    1
 13867 13969 13971    1
 13868 13969 13972    1
 13869 13972 13973    1
 13870 13972 13974    1
 13871 13972 13975    1
 13872 13975 13976    1
 13873 13975 13977    1
 13874 13975 13978    1
 13875 13978 13979    1
 13876 13978 13980    1
 13877 13978 13981    1
 13878 13981 13982    1
 13879 13981 13983    1
 13880 13981 13984    1
 13881 13984 13985    1
 13882 13984 13986    1
 13883 13984 13987    1
 13884 13987 13988    1
 13885 13987 13989    1
 13886 13987 13990    1
 13887 13990 13991    1
 13888 13990 13992    1
 13889 13990 13993    1
 13890 13993 13994    1
 13891 13993 13995    1
 13892 13993 13996    1
 13893 13996 13997    1
 13894 13996 13998    1
 13895 13996 13999    1
 13896 13999 14000    1
 13897 13999 14001    1
 13898 13999 14002    1
 13899 14003 14004    1
 13900 14003 14007    1
 13901 14003 14011    1
 13902 14003 14015    1
 13903 14004 14005    1
 13904 14004 14006    1
 13905 14004 14019    1
 13906 14007 14008    1
 13907 14007 14009    1
 13908 14007 14010    1
 13909 14011 14012    1
 13910 14011 14013    1
 13911 14011 14014    1
 13912 14015 14016    1
 13913 14015 14017    1
 13914 14015 14018    1
 13915 14019 14020    1
 13916 14019 14021    1
 13917 14019 14025    1
 13918 14022 14023    2
 13919 14022 14024    1
 13920 14022 14025    1
 13921 14022 14026    1
 13922 14026 14027    1
 13923 14027 14028    1
 13924 14027 14029    1
 13925 14027 14030    1
 13926 14030 14031    1
 13927 14030 14032    1
 13928 14030 14038    1
 13929 14032 14033    1
 13930 14033 14034    2
 13931 14033 14035    1
 13932 14035 14036    1
 13933 14035 14037    1
 13934 14035 14047    1
 13935 14038 14039    1
 13936 14038 14040    1
 13937 14038 14041    1
 13938 14041 14042    1
 13939 14042 14043    2
 13940 14042 14044    1
 13941 14044 14045    1
 13942 14044 14046    1
 13943 14044 14094    1
 13944 14047 14048    1
 13945 14047 14049    1
 13946 14047 14050    1
 13947 14050 14051    1
 13948 14050 14052    1
 13949 14050 14053    1
 13950 14053 14054    1
 13951 14053 14055    1
 13952 14053 14056    1
 13953 14056 14057    1
 13954 14056 14058    1
 13955 14056 14059    1
 13956 14059 14060    1
 13957 14059 14061    1
 13958 14059 14062    1
 13959 14062 14063    1
 13960 14062 14064    1
 13961 14062 14065    1
 13962 14065 14066    1
 13963 14065 14067    2
 13964 14067 14068    1
 13965 14067 14069    1
 13966 14069 14070    1
 13967 14069 14071    1
 13968 14069 14072    1
 13969 14072 14073    1
 13970 14072 14074    1
 13971 14072 14075    1
 13972 14075 14076    1
 13973 14075 14077    1
 13974 14075 14078    1
 13975 14078 14079    1
 13976 14078 14080    1
 13977 14078 14081    1
 13978 14081 14082    1
 13979 14081 14083    1
 13980 14081 14084    1
 13981 14084 14085    1
 13982 14084 14086    1
 13983 14084 14087    1
 13984 14087 14088    1
 13985 14087 14089    1
 13986 14087 14090    1
 13987 14090 14091    1
 13988 14090 14092    1
 13989 14090 14093    1
 13990 14094 14095    1
 13991 14094 14096    1
 13992 14094 14097    1
 13993 14097 14098    1
 13994 14097 14099    1
 13995 14097 14100    1
 13996 14100 14101    1
 13997 14100 14102    1
 13998 14100 14103    1
 13999 14103 14104    1
 14000 14103 14105    1
 14001 14103 14106    1
 14002 14106 14107    1
 14003 14106 14108    1
 14004 14106 14109    1
 14005 14109 14110    1
 14006 14109 14111    1
 14007 14109 14112    1
 14008 14112 14113    1
 14009 14112 14114    1
 14010 14112 14115    1
 14011 14115 14116    1
 14012 14115 14117    1
 14013 14115 14118    1
 14014 14118 14119    1
 14015 14118 14120    1
 14016 14118 14121    1
 14017 14121 14122    1
 14018 14121 14123    1
 14019 14121 14124    1
 14020 14124 14125    1
 14021 14124 14126    1
 14022 14124 14127    1
 14023 14127 14128    1
 14024 14127 14129    1
 14025 14127 14130    1
 14026 14130 14131    1
 14027 14130 14132    1
 14028 14130 14133    1
 14029 14133 14134    1
 14030 14133 14135    1
 14031 14133 14136    1
 14032 14137 14138    1
 14033 14137 14141    1
 14034 14137 14145    1
 14035 14137 14149    1
 14036 14138 14139    1
 14037 14138 14140    1
 14038 14138 14153    1
 14039 14141 14142    1
 14040 14141 14143    1
 14041 14141 14144    1
 14042 14145 14146    1
 14043 14145 14147    1
 14044 14145 14148    1
 14045 14149 14150    1
 14046 14149 14151    1
 14047 14149 14152    1
 14048 14153 14154    1
 14049 14153 14155    1
 14050 14153 14159    1
 14051 14156 14157    2
 14052 14156 14158    1
 14053 14156 14159    1
 14054 14156 14160    1
 14055 14160 14161    1
 14056 14161 14162    1
 14057 14161 14163    1
 14058 14161 14164    1
 14059 14164 14165    1
 14060 14164 14166    1
 14061 14164 14172    1
 14062 14166 14167    1
 14063 14167 14168    2
 14064 14167 14169    1
 14065 14169 14170    1
 14066 14169 14171    1
 14067 14169 14181    1
 14068 14172 14173    1
 14069 14172 14174    1
 14070 14172 14175    1
 14071 14175 14176    1
 14072 14176 14177    2
 14073 14176 14178    1
 14074 14178 14179    1
 14075 14178 14180    1
 14076 14178 14228    1
 14077 14181 14182    1
 14078 14181 14183    1
 14079 14181 14184    1
 14080 14184 14185    1
 14081 14184 14186    1
 14082 14184 14187    1
 14083 14187 14188    1
 14084 14187 14189    1
 14085 14187 14190    1
 14086 14190 14191    1
 14087 14190 14192    1
 14088 14190 14193    1
 14089 14193 14194    1
 14090 14193 14195    1
 14091 14193 14196    1
 14092 14196 14197    1
 14093 14196 14198    1
 14094 14196 14199    1
 14095 14199 14200    1
 14096 14199 14201    2
 14097 14201 14202    1
 14098 14201 14203    1
 14099 14203 14204    1
 14100 14203 14205    1
 14101 14203 14206    1
 14102 14206 14207    1
 14103 14206 14208    1
 14104 14206 14209    1
 14105 14209 14210    1
 14106 14209 14211    1
 14107 14209 14212    1
 14108 14212 14213    1
 14109 14212 14214    1
 14110 14212 14215    1
 14111 14215 14216    1
 14112 14215 14217    1
 14113 14215 14218    1
 14114 14218 14219    1
 14115 14218 14220    1
 14116 14218 14221    1
 14117 14221 14222    1
 14118 14221 14223    1
 14119 14221 14224    1
 14120 14224 14225    1
 14121 14224 14226    1
 14122 14224 14227    1
 14123 14228 14229    1
 14124 14228 14230    1
 14125 14228 14231    1
 14126 14231 14232    1
 14127 14231 14233    1
 14128 14231 14234    1
 14129 14234 14235    1
 14130 14234 14236    1
 14131 14234 14237    1
 14132 14237 14238    1
 14133 14237 14239    1
 14134 14237 14240    1
 14135 14240 14241    1
 14136 14240 14242    1
 14137 14240 14243    1
 14138 14243 14244    1
 14139 14243 14245    1
 14140 14243 14246    1
 14141 14246 14247    1
 14142 14246 14248    1
 14143 14246 14249    1
 14144 14249 14250    1
 14145 14249 14251    1
 14146 14249 14252    1
 14147 14252 14253    1
 14148 14252 14254    1
 14149 14252 14255    1
 14150 14255 14256    1
 14151 14255 14257    1
 14152 14255 14258    1
 14153 14258 14259    1
 14154 14258 14260    1
 14155 14258 14261    1
 14156 14261 14262    1
 14157 14261 14263    1
 14158 14261 14264    1
 14159 14264 14265    1
 14160 14264 14266    1
 14161 14264 14267    1
 14162 14267 14268    1
 14163 14267 14269    1
 14164 14267 14270    1
 14165 14271 14272    1
 14166 14271 14275    1
 14167 14271 14279    1
 14168 14271 14283    1
 14169 14272 14273    1
 14170 14272 14274    1
 14171 14272 14287    1
 14172 14275 14276    1
 14173 14275 14277    1
 14174 14275 14278    1
 14175 14279 14280    1
 14176 14279 14281    1
 14177 14279 14282    1
 14178 14283 14284    1
 14179 14283 14285    1
 14180 14283 14286    1
 14181 14287 14288    1
 14182 14287 14289    1
 14183 14287 14293    1
 14184 14290 14291    2
 14185 14290 14292    1
 14186 14290 14293    1
 14187 14290 14294    1
 14188 14294 14295    1
 14189 14295 14296    1
 14190 14295 14297    1
 14191 14295 14298    1
 14192 14298 14299    1
 14193 14298 14300    1
 14194 14298 14306    1
 14195 14300 14301    1
 14196 14301 14302    2
 14197 14301 14303    1
 14198 14303 14304    1
 14199 14303 14305    1
 14200 14303 14315    1
 14201 14306 14307    1
 14202 14306 14308    1
 14203 14306 14309    1
 14204 14309 14310    1
 14205 14310 14311    2
 14206 14310 14312    1
 14207 14312 14313    1
 14208 14312 14314    1
 14209 14312 14362    1
 14210 14315 14316    1
 14211 14315 14317    1
 14212 14315 14318    1
 14213 14318 14319    1
 14214 14318 14320    1
 14215 14318 14321    1
 14216 14321 14322    1
 14217 14321 14323    1
 14218 14321 14324    1
 14219 14324 14325    1
 14220 14324 14326    1
 14221 14324 14327    1
 14222 14327 14328    1
 14223 14327 14329    1
 14224 14327 14330    1
 14225 14330 14331    1
 14226 14330 14332    1
 14227 14330 14333    1
 14228 14333 14334    1
 14229 14333 14335    2
 14230 14335 14336    1
 14231 14335 14337    1
 14232 14337 14338    1
 14233 14337 14339    1
 14234 14337 14340    1
 14235 14340 14341    1
 14236 14340 14342    1
 14237 14340 14343    1
 14238 14343 14344    1
 14239 14343 14345    1
 14240 14343 14346    1
 14241 14346 14347    1
 14242 14346 14348    1
 14243 14346 14349    1
 14244 14349 14350    1
 14245 14349 14351    1
 14246 14349 14352    1
 14247 14352 14353    1
 14248 14352 14354    1
 14249 14352 14355    1
 14250 14355 14356    1
 14251 14355 14357    1
 14252 14355 14358    1
 14253 14358 14359    1
 14254 14358 14360    1
 14255 14358 14361    1
 14256 14362 14363    1
 14257 14362 14364    1
 14258 14362 14365    1
 14259 14365 14366    1
 14260 14365 14367    1
 14261 14365 14368    1
 14262 14368 14369    1
 14263 14368 14370    1
 14264 14368 14371    1
 14265 14371 14372    1
 14266 14371 14373    1
 14267 14371 14374    1
 14268 14374 14375    1
 14269 14374 14376    1
 14270 14374 14377    1
 14271 14377 14378    1
 14272 14377 14379    1
 14273 14377 14380    1
 14274 14380 14381    1
 14275 14380 14382    1
 14276 14380 14383    1
 14277 14383 14384    1
 14278 14383 14385    1
 14279 14383 14386    1
 14280 14386 14387    1
 14281 14386 14388    1
 14282 14386 14389    1
 14283 14389 14390    1
 14284 14389 14391    1
 14285 14389 14392    1
 14286 14392 14393    1
 14287 14392 14394    1
 14288 14392 14395    1
 14289 14395 14396    1
 14290 14395 14397    1
 14291 14395 14398    1
 14292 14398 14399    1
 14293 14398 14400    1
 14294 14398 14401    1
 14295 14401 14402    1
 14296 14401 14403    1
 14297 14401 14404    1
 14298 14405 14406    1
 14299 14405 14409    1
 14300 14405 14413    1
 14301 14405 14417    1
 14302 14406 14407    1
 14303 14406 14408    1
 14304 14406 14421    1
 14305 14409 14410    1
 14306 14409 14411    1
 14307 14409 14412    1
 14308 14413 14414    1
 14309 14413 14415    1
 14310 14413 14416    1
 14311 14417 14418    1
 14312 14417 14419    1
 14313 14417 14420    1
 14314 14421 14422    1
 14315 14421 14423    1
 14316 14421 14427    1
 14317 14424 14425    2
 14318 14424 14426    1
 14319 14424 14427    1
 14320 14424 14428    1
 14321 14428 14429    1
 14322 14429 14430    1
 14323 14429 14431    1
 14324 14429 14432    1
 14325 14432 14433    1
 14326 14432 14434    1
 14327 14432 14440    1
 14328 14434 14435    1
 14329 14435 14436    2
 14330 14435 14437    1
 14331 14437 14438    1
 14332 14437 14439    1
 14333 14437 14449    1
 14334 14440 14441    1
 14335 14440 14442    1
 14336 14440 14443    1
 14337 14443 14444    1
 14338 14444 14445    2
 14339 14444 14446    1
 14340 14446 14447    1
 14341 14446 14448    1
 14342 14446 14496    1
 14343 14449 14450    1
 14344 14449 14451    1
 14345 14449 14452    1
 14346 14452 14453    1
 14347 14452 14454    1
 14348 14452 14455    1
 14349 14455 14456    1
 14350 14455 14457    1
 14351 14455 14458    1
 14352 14458 14459    1
 14353 14458 14460    1
 14354 14458 14461    1
 14355 14461 14462    1
 14356 14461 14463    1
 14357 14461 14464    1
 14358 14464 14465    1
 14359 14464 14466    1
 14360 14464 14467    1
 14361 14467 14468    1
 14362 14467 14469    2
 14363 14469 14470    1
 14364 14469 14471    1
 14365 14471 14472    1
 14366 14471 14473    1
 14367 14471 14474    1
 14368 14474 14475    1
 14369 14474 14476    1
 14370 14474 14477    1
 14371 14477 14478    1
 14372 14477 14479    1
 14373 14477 14480    1
 14374 14480 14481    1
 14375 14480 14482    1
 14376 14480 14483    1
 14377 14483 14484    1
 14378 14483 14485    1
 14379 14483 14486    1
 14380 14486 14487    1
 14381 14486 14488    1
 14382 14486 14489    1
 14383 14489 14490    1
 14384 14489 14491    1
 14385 14489 14492    1
 14386 14492 14493    1
 14387 14492 14494    1
 14388 14492 14495    1
 14389 14496 14497    1
 14390 14496 14498    1
 14391 14496 14499    1
 14392 14499 14500    1
 14393 14499 14501    1
 14394 14499 14502    1
 14395 14502 14503    1
 14396 14502 14504    1
 14397 14502 14505    1
 14398 14505 14506    1
 14399 14505 14507    1
 14400 14505 14508    1
 14401 14508 14509    1
 14402 14508 14510    1
 14403 14508 14511    1
 14404 14511 14512    1
 14405 14511 14513    1
 14406 14511 14514    1
 14407 14514 14515    1
 14408 14514 14516    1
 14409 14514 14517    1
 14410 14517 14518    1
 14411 14517 14519    1
 14412 14517 14520    1
 14413 14520 14521    1
 14414 14520 14522    1
 14415 14520 14523    1
 14416 14523 14524    1
 14417 14523 14525    1
 14418 14523 14526    1
 14419 14526 14527    1
 14420 14526 14528    1
 14421 14526 14529    1
 14422 14529 14530    1
 14423 14529 14531    1
 14424 14529 14532    1
 14425 14532 14533    1
 14426 14532 14534    1
 14427 14532 14535    1
 14428 14535 14536    1
 14429 14535 14537    1
 14430 14535 14538    1
 14431 14539 14540    1
 14432 14539 14543    1
 14433 14539 14547    1
 14434 14539 14551    1
 14435 14540 14541    1
 14436 14540 14542    1
 14437 14540 14555    1
 14438 14543 14544    1
 14439 14543 14545    1
 14440 14543 14546    1
 14441 14547 14548    1
 14442 14547 14549    1
 14443 14547 14550    1
 14444 14551 14552    1
 14445 14551 14553    1
 14446 14551 14554    1
 14447 14555 14556    1
 14448 14555 14557    1
 14449 14555 14561    1
 14450 14558 14559    2
 14451 14558 14560    1
 14452 14558 14561    1
 14453 14558 14562    1
 14454 14562 14563    1
 14455 14563 14564    1
 14456 14563 14565    1
 14457 14563 14566    1
 14458 14566 14567    1
 14459 14566 14568    1
 14460 14566 14574    1
 14461 14568 14569    1
 14462 14569 14570    2
 14463 14569 14571    1
 14464 14571 14572    1
 14465 14571 14573    1
 14466 14571 14583    1
 14467 14574 14575    1
 14468 14574 14576    1
 14469 14574 14577    1
 14470 14577 14578    1
 14471 14578 14579    2
 14472 14578 14580    1
 14473 14580 14581    1
 14474 14580 14582    1
 14475 14580 14630    1
 14476 14583 14584    1
 14477 14583 14585    1
 14478 14583 14586    1
 14479 14586 14587    1
 14480 14586 14588    1
 14481 14586 14589    1
 14482 14589 14590    1
 14483 14589 14591    1
 14484 14589 14592    1
 14485 14592 14593    1
 14486 14592 14594    1
 14487 14592 14595    1
 14488 14595 14596    1
 14489 14595 14597    1
 14490 14595 14598    1
 14491 14598 14599    1
 14492 14598 14600    1
 14493 14598 14601    1
 14494 14601 14602    1
 14495 14601 14603    2
 14496 14603 14604    1
 14497 14603 14605    1
 14498 14605 14606    1
 14499 14605 14607    1
 14500 14605 14608    1
 14501 14608 14609    1
 14502 14608 14610    1
 14503 14608 14611    1
 14504 14611 14612    1
 14505 14611 14613    1
 14506 14611 14614    1
 14507 14614 14615    1
 14508 14614 14616    1
 14509 14614 14617    1
 14510 14617 14618    1
 14511 14617 14619    1
 14512 14617 14620    1
 14513 14620 14621    1
 14514 14620 14622    1
 14515 14620 14623    1
 14516 14623 14624    1
 14517 14623 14625    1
 14518 14623 14626    1
 14519 14626 14627    1
 14520 14626 14628    1
 14521 14626 14629    1
 14522 14630 14631    1
 14523 14630 14632    1
 14524 14630 14633    1
 14525 14633 14634    1
 14526 14633 14635    1
 14527 14633 14636    1
 14528 14636 14637    1
 14529 14636 14638    1
 14530 14636 14639    1
 14531 14639 14640    1
 14532 14639 14641    1
 14533 14639 14642    1
 14534 14642 14643    1
 14535 14642 14644    1
 14536 14642 14645    1
 14537 14645 14646    1
 14538 14645 14647    1
 14539 14645 14648    1
 14540 14648 14649    1
 14541 14648 14650    1
 14542 14648 14651    1
 14543 14651 14652    1
 14544 14651 14653    1
 14545 14651 14654    1
 14546 14654 14655    1
 14547 14654 14656    1
 14548 14654 14657    1
 14549 14657 14658    1
 14550 14657 14659    1
 14551 14657 14660    1
 14552 14660 14661    1
 14553 14660 14662    1
 14554 14660 14663    1
 14555 14663 14664    1
 14556 14663 14665    1
 14557 14663 14666    1
 14558 14666 14667    1
 14559 14666 14668    1
 14560 14666 14669    1
 14561 14669 14670    1
 14562 14669 14671    1
 14563 14669 14672    1
 14564 14673 14674    1
 14565 14673 14677    1
 14566 14673 14681    1
 14567 14673 14685    1
 14568 14674 14675    1
 14569 14674 14676    1
 14570 14674 14689    1
 14571 14677 14678    1
 14572 14677 14679    1
 14573 14677 14680    1
 14574 14681 14682    1
 14575 14681 14683    1
 14576 14681 14684    1
 14577 14685 14686    1
 14578 14685 14687    1
 14579 14685 14688    1
 14580 14689 14690    1
 14581 14689 14691    1
 14582 14689 14695    1
 14583 14692 14693    2
 14584 14692 14694    1
 14585 14692 14695    1
 14586 14692 14696    1
 14587 14696 14697    1
 14588 14697 14698    1
 14589 14697 14699    1
 14590 14697 14700    1
 14591 14700 14701    1
 14592 14700 14702    1
 14593 14700 14708    1
 14594 14702 14703    1
 14595 14703 14704    2
 14596 14703 14705    1
 14597 14705 14706    1
 14598 14705 14707    1
 14599 14705 14717    1
 14600 14708 14709    1
 14601 14708 14710    1
 14602 14708 14711    1
 14603 14711 14712    1
 14604 14712 14713    2
 14605 14712 14714    1
 14606 14714 14715    1
 14607 14714 14716    1
 14608 14714 14764    1
 14609 14717 14718    1
 14610 14717 14719    1
 14611 14717 14720    1
 14612 14720 14721    1
 14613 14720 14722    1
 14614 14720 14723    1
 14615 14723 14724    1
 14616 14723 14725    1
 14617 14723 14726    1
 14618 14726 14727    1
 14619 14726 14728    1
 14620 14726 14729    1
 14621 14729 14730    1
 14622 14729 14731    1
 14623 14729 14732    1
 14624 14732 14733    1
 14625 14732 14734    1
 14626 14732 14735    1
 14627 14735 14736    1
 14628 14735 14737    2
 14629 14737 14738    1
 14630 14737 14739    1
 14631 14739 14740    1
 14632 14739 14741    1
 14633 14739 14742    1
 14634 14742 14743    1
 14635 14742 14744    1
 14636 14742 14745    1
 14637 14745 14746    1
 14638 14745 14747    1
 14639 14745 14748    1
 14640 14748 14749    1
 14641 14748 14750    1
 14642 14748 14751    1
 14643 14751 14752    1
 14644 14751 14753    1
 14645 14751 14754    1
 14646 14754 14755    1
 14647 14754 14756    1
 14648 14754 14757    1
 14649 14757 14758    1
 14650 14757 14759    1
 14651 14757 14760    1
 14652 14760 14761    1
 14653 14760 14762    1
 14654 14760 14763    1
 14655 14764 14765    1
 14656 14764 14766    1
 14657 14764 14767    1
 14658 14767 14768    1
 14659 14767 14769    1
 14660 14767 14770    1
 14661 14770 14771    1
 14662 14770 14772    1
 14663 14770 14773    1
 14664 14773 14774    1
 14665 14773 14775    1
 14666 14773 14776    1
 14667 14776 14777    1
 14668 14776 14778    1
 14669 14776 14779    1
 14670 14779 14780    1
 14671 14779 14781    1
 14672 14779 14782    1
 14673 14782 14783    1
 14674 14782 14784    1
 14675 14782 14785    1
 14676 14785 14786    1
 14677 14785 14787    1
 14678 14785 14788    1
 14679 14788 14789    1
 14680 14788 14790    1
 14681 14788 14791    1
 14682 14791 14792    1
 14683 14791 14793    1
 14684 14791 14794    1
 14685 14794 14795    1
 14686 14794 14796    1
 14687 14794 14797    1
 14688 14797 14798    1
 14689 14797 14799    1
 14690 14797 14800    1
 14691 14800 14801    1
 14692 14800 14802    1
 14693 14800 14803    1
 14694 14803 14804    1
 14695 14803 14805    1
 14696 14803 14806    1
 14697 14807 14808    1
 14698 14807 14811    1
 14699 14807 14815    1
 14700 14807 14819    1
 14701 14808 14809    1
 14702 14808 14810    1
 14703 14808 14823    1
 14704 14811 14812    1
 14705 14811 14813    1
 14706 14811 14814    1
 14707 14815 14816    1
 14708 14815 14817    1
 14709 14815 14818    1
 14710 14819 14820    1
 14711 14819 14821    1
 14712 14819 14822    1
 14713 14823 14824    1
 14714 14823 14825    1
 14715 14823 14829    1
 14716 14826 14827    2
 14717 14826 14828    1
 14718 14826 14829    1
 14719 14826 14830    1
 14720 14830 14831    1
 14721 14831 14832    1
 14722 14831 14833    1
 14723 14831 14834    1
 14724 14834 14835    1
 14725 14834 14836    1
 14726 14834 14842    1
 14727 14836 14837    1
 14728 14837 14838    2
 14729 14837 14839    1
 14730 14839 14840    1
 14731 14839 14841    1
 14732 14839 14851    1
 14733 14842 14843    1
 14734 14842 14844    1
 14735 14842 14845    1
 14736 14845 14846    1
 14737 14846 14847    2
 14738 14846 14848    1
 14739 14848 14849    1
 14740 14848 14850    1
 14741 14848 14898    1
 14742 14851 14852    1
 14743 14851 14853    1
 14744 14851 14854    1
 14745 14854 14855    1
 14746 14854 14856    1
 14747 14854 14857    1
 14748 14857 14858    1
 14749 14857 14859    1
 14750 14857 14860    1
 14751 14860 14861    1
 14752 14860 14862    1
 14753 14860 14863    1
 14754 14863 14864    1
 14755 14863 14865    1
 14756 14863 14866    1
 14757 14866 14867    1
 14758 14866 14868    1
 14759 14866 14869    1
 14760 14869 14870    1
 14761 14869 14871    2
 14762 14871 14872    1
 14763 14871 14873    1
 14764 14873 14874    1
 14765 14873 14875    1
 14766 14873 14876    1
 14767 14876 14877    1
 14768 14876 14878    1
 14769 14876 14879    1
 14770 14879 14880    1
 14771 14879 14881    1
 14772 14879 14882    1
 14773 14882 14883    1
 14774 14882 14884    1
 14775 14882 14885    1
 14776 14885 14886    1
 14777 14885 14887    1
 14778 14885 14888    1
 14779 14888 14889    1
 14780 14888 14890    1
 14781 14888 14891    1
 14782 14891 14892    1
 14783 14891 14893    1
 14784 14891 14894    1
 14785 14894 14895    1
 14786 14894 14896    1
 14787 14894 14897    1
 14788 14898 14899    1
 14789 14898 14900    1
 14790 14898 14901    1
 14791 14901 14902    1
 14792 14901 14903    1
 14793 14901 14904    1
 14794 14904 14905    1
 14795 14904 14906    1
 14796 14904 14907    1
 14797 14907 14908    1
 14798 14907 14909    1
 14799 14907 14910    1
 14800 14910 14911    1
 14801 14910 14912    1
 14802 14910 14913    1
 14803 14913 14914    1
 14804 14913 14915    1
 14805 14913 14916    1
 14806 14916 14917    1
 14807 14916 14918    1
 14808 14916 14919    1
 14809 14919 14920    1
 14810 14919 14921    1
 14811 14919 14922    1
 14812 14922 14923    1
 14813 14922 14924    1
 14814 14922 14925    1
 14815 14925 14926    1
 14816 14925 14927    1
 14817 14925 14928    1
 14818 14928 14929    1
 14819 14928 14930    1
 14820 14928 14931    1
 14821 14931 14932    1
 14822 14931 14933    1
 14823 14931 14934    1
 14824 14934 14935    1
 14825 14934 14936    1
 14826 14934 14937    1
 14827 14937 14938    1
 14828 14937 14939    1
 14829 14937 14940    1
 14830 14941 14942    1
 14831 14941 14945    1
 14832 14941 14949    1
 14833 14941 14953    1
 14834 14942 14943    1
 14835 14942 14944    1
 14836 14942 14957    1
 14837 14945 14946    1
 14838 14945 14947    1
 14839 14945 14948    1
 14840 14949 14950    1
 14841 14949 14951    1
 14842 14949 14952    1
 14843 14953 14954    1
 14844 14953 14955    1
 14845 14953 14956    1
 14846 14957 14958    1
 14847 14957 14959    1
 14848 14957 14963    1
 14849 14960 14961    2
 14850 14960 14962    1
 14851 14960 14963    1
 14852 14960 14964    1
 14853 14964 14965    1
 14854 14965 14966    1
 14855 14965 14967    1
 14856 14965 14968    1
 14857 14968 14969    1
 14858 14968 14970    1
 14859 14968 14976    1
 14860 14970 14971    1
 14861 14971 14972    2
 14862 14971 14973    1
 14863 14973 14974    1
 14864 14973 14975    1
 14865 14973 14985    1
 14866 14976 14977    1
 14867 14976 14978    1
 14868 14976 14979    1
 14869 14979 14980    1
 14870 14980 14981    2
 14871 14980 14982    1
 14872 14982 14983    1
 14873 14982 14984    1
 14874 14982 15032    1
 14875 14985 14986    1
 14876 14985 14987    1
 14877 14985 14988    1
 14878 14988 14989    1
 14879 14988 14990    1
 14880 14988 14991    1
 14881 14991 14992    1
 14882 14991 14993    1
 14883 14991 14994    1
 14884 14994 14995    1
 14885 14994 14996    1
 14886 14994 14997    1
 14887 14997 14998    1
 14888 14997 14999    1
 14889 14997 15000    1
 14890 15000 15001    1
 14891 15000 15002    1
 14892 15000 15003    1
 14893 15003 15004    1
 14894 15003 15005    2
 14895 15005 15006    1
 14896 15005 15007    1
 14897 15007 15008    1
 14898 15007 15009    1
 14899 15007 15010    1
 14900 15010 15011    1
 14901 15010 15012    1
 14902 15010 15013    1
 14903 15013 15014    1
 14904 15013 15015    1
 14905 15013 15016    1
 14906 15016 15017    1
 14907 15016 15018    1
 14908 15016 15019    1
 14909 15019 15020    1
 14910 15019 15021    1
 14911 15019 15022    1
 14912 15022 15023    1
 14913 15022 15024    1
 14914 15022 15025    1
 14915 15025 15026    1
 14916 15025 15027    1
 14917 15025 15028    1
 14918 15028 15029    1
 14919 15028 15030    1
 14920 15028 15031    1
 14921 15032 15033    1
 14922 15032 15034    1
 14923 15032 15035    1
 14924 15035 15036    1
 14925 15035 15037    1
 14926 15035 15038    1
 14927 15038 15039    1
 14928 15038 15040    1
 14929 15038 15041    1
 14930 15041 15042    1
 14931 15041 15043    1
 14932 15041 15044    1
 14933 15044 15045    1
 14934 15044 15046    1
 14935 15044 15047    1
 14936 15047 15048    1
 14937 15047 15049    1
 14938 15047 15050    1
 14939 15050 15051    1
 14940 15050 15052    1
 14941 15050 15053    1
 14942 15053 15054    1
 14943 15053 15055    1
 14944 15053 15056    1
 14945 15056 15057    1
 14946 15056 15058    1
 14947 15056 15059    1
 14948 15059 15060    1
 14949 15059 15061    1
 14950 15059 15062    1
 14951 15062 15063    1
 14952 15062 15064    1
 14953 15062 15065    1
 14954 15065 15066    1
 14955 15065 15067    1
 14956 15065 15068    1
 14957 15068 15069    1
 14958 15068 15070    1
 14959 15068 15071    1
 14960 15071 15072    1
 14961 15071 15073    1
 14962 15071 15074    1
 14963 15075 15076    1
 14964 15075 15079    1
 14965 15075 15083    1
 14966 15075 15087    1
 14967 15076 15077    1
 14968 15076 15078    1
 14969 15076 15091    1
 14970 15079 15080    1
 14971 15079 15081    1
 14972 15079 15082    1
 14973 15083 15084    1
 14974 15083 15085    1
 14975 15083 15086    1
 14976 15087 15088    1
 14977 15087 15089    1
 14978 15087 15090    1
 14979 15091 15092    1
 14980 15091 15093    1
 14981 15091 15097    1
 14982 15094 15095    2
 14983 15094 15096    1
 14984 15094 15097    1
 14985 15094 15098    1
 14986 15098 15099    1
 14987 15099 15100    1
 14988 15099 15101    1
 14989 15099 15102    1
 14990 15102 15103    1
 14991 15102 15104    1
 14992 15102 15110    1
 14993 15104 15105    1
 14994 15105 15106    2
 14995 15105 15107    1
 14996 15107 15108    1
 14997 15107 15109    1
 14998 15107 15119    1
 14999 15110 15111    1
 15000 15110 15112    1
 15001 15110 15113    1
 15002 15113 15114    1
 15003 15114 15115    2
 15004 15114 15116    1
 15005 15116 15117    1
 15006 15116 15118    1
 15007 15116 15166    1
 15008 15119 15120    1
 15009 15119 15121    1
 15010 15119 15122    1
 15011 15122 15123    1
 15012 15122 15124    1
 15013 15122 15125    1
 15014 15125 15126    1
 15015 15125 15127    1
 15016 15125 15128    1
 15017 15128 15129    1
 15018 15128 15130    1
 15019 15128 15131    1
 15020 15131 15132    1
 15021 15131 15133    1
 15022 15131 15134    1
 15023 15134 15135    1
 15024 15134 15136    1
 15025 15134 15137    1
 15026 15137 15138    1
 15027 15137 15139    2
 15028 15139 15140    1
 15029 15139 15141    1
 15030 15141 15142    1
 15031 15141 15143    1
 15032 15141 15144    1
 15033 15144 15145    1
 15034 15144 15146    1
 15035 15144 15147    1
 15036 15147 15148    1
 15037 15147 15149    1
 15038 15147 15150    1
 15039 15150 15151    1
 15040 15150 15152    1
 15041 15150 15153    1
 15042 15153 15154    1
 15043 15153 15155    1
 15044 15153 15156    1
 15045 15156 15157    1
 15046 15156 15158    1
 15047 15156 15159    1
 15048 15159 15160    1
 15049 15159 15161    1
 15050 15159 15162    1
 15051 15162 15163    1
 15052 15162 15164    1
 15053 15162 15165    1
 15054 15166 15167    1
 15055 15166 15168    1
 15056 15166 15169    1
 15057 15169 15170    1
 15058 15169 15171    1
 15059 15169 15172    1
 15060 15172 15173    1
 15061 15172 15174    1
 15062 15172 15175    1
 15063 15175 15176    1
 15064 15175 15177    1
 15065 15175 15178    1
 15066 15178 15179    1
 15067 15178 15180    1
 15068 15178 15181    1
 15069 15181 15182    1
 15070 15181 15183    1
 15071 15181 15184    1
 15072 15184 15185    1
 15073 15184 15186    1
 15074 15184 15187    1
 15075 15187 15188    1
 15076 15187 15189    1
 15077 15187 15190    1
 15078 15190 15191    1
 15079 15190 15192    1
 15080 15190 15193    1
 15081 15193 15194    1
 15082 15193 15195    1
 15083 15193 15196    1
 15084 15196 15197    1
 15085 15196 15198    1
 15086 15196 15199    1
 15087 15199 15200    1
 15088 15199 15201    1
 15089 15199 15202    1
 15090 15202 15203    1
 15091 15202 15204    1
 15092 15202 15205    1
 15093 15205 15206    1
 15094 15205 15207    1
 15095 15205 15208    1
 15096 15209 15210    1
 15097 15209 15213    1
 15098 15209 15217    1
 15099 15209 15221    1
 15100 15210 15211    1
 15101 15210 15212    1
 15102 15210 15225    1
 15103 15213 15214    1
 15104 15213 15215    1
 15105 15213 15216    1
 15106 15217 15218    1
 15107 15217 15219    1
 15108 15217 15220    1
 15109 15221 15222    1
 15110 15221 15223    1
 15111 15221 15224    1
 15112 15225 15226    1
 15113 15225 15227    1
 15114 15225 15231    1
 15115 15228 15229    2
 15116 15228 15230    1
 15117 15228 15231    1
 15118 15228 15232    1
 15119 15232 15233    1
 15120 15233 15234    1
 15121 15233 15235    1
 15122 15233 15236    1
 15123 15236 15237    1
 15124 15236 15238    1
 15125 15236 15244    1
 15126 15238 15239    1
 15127 15239 15240    2
 15128 15239 15241    1
 15129 15241 15242    1
 15130 15241 15243    1
 15131 15241 15253    1
 15132 15244 15245    1
 15133 15244 15246    1
 15134 15244 15247    1
 15135 15247 15248    1
 15136 15248 15249    2
 15137 15248 15250    1
 15138 15250 15251    1
 15139 15250 15252    1
 15140 15250 15300    1
 15141 15253 15254    1
 15142 15253 15255    1
 15143 15253 15256    1
 15144 15256 15257    1
 15145 15256 15258    1
 15146 15256 15259    1
 15147 15259 15260    1
 15148 15259 15261    1
 15149 15259 15262    1
 15150 15262 15263    1
 15151 15262 15264    1
 15152 15262 15265    1
 15153 15265 15266    1
 15154 15265 15267    1
 15155 15265 15268    1
 15156 15268 15269    1
 15157 15268 15270    1
 15158 15268 15271    1
 15159 15271 15272    1
 15160 15271 15273    2
 15161 15273 15274    1
 15162 15273 15275    1
 15163 15275 15276    1
 15164 15275 15277    1
 15165 15275 15278    1
 15166 15278 15279    1
 15167 15278 15280    1
 15168 15278 15281    1
 15169 15281 15282    1
 15170 15281 15283    1
 15171 15281 15284    1
 15172 15284 15285    1
 15173 15284 15286    1
 15174 15284 15287    1
 15175 15287 15288    1
 15176 15287 15289    1
 15177 15287 15290    1
 15178 15290 15291    1
 15179 15290 15292    1
 15180 15290 15293    1
 15181 15293 15294    1
 15182 15293 15295    1
 15183 15293 15296    1
 15184 15296 15297    1
 15185 15296 15298    1
 15186 15296 15299    1
 15187 15300 15301    1
 15188 15300 15302    1
 15189 15300 15303    1
 15190 15303 15304    1
 15191 15303 15305    1
 15192 15303 15306    1
 15193 15306 15307    1
 15194 15306 15308    1
 15195 15306 15309    1
 15196 15309 15310    1
 15197 15309 15311    1
 15198 15309 15312    1
 15199 15312 15313    1
 15200 15312 15314    1
 15201 15312 15315    1
 15202 15315 15316    1
 15203 15315 15317    1
 15204 15315 15318    1
 15205 15318 15319    1
 15206 15318 15320    1
 15207 15318 15321    1
 15208 15321 15322    1
 15209 15321 15323    1
 15210 15321 15324    1
 15211 15324 15325    1
 15212 15324 15326    1
 15213 15324 15327    1
 15214 15327 15328    1
 15215 15327 15329    1
 15216 15327 15330    1
 15217 15330 15331    1
 15218 15330 15332    1
 15219 15330 15333    1
 15220 15333 15334    1
 15221 15333 15335    1
 15222 15333 15336    1
 15223 15336 15337    1
 15224 15336 15338    1
 15225 15336 15339    1
 15226 15339 15340    1
 15227 15339 15341    1
 15228 15339 15342    1
 15229 15343 15344    1
 15230 15343 15347    1
 15231 15343 15351    1
 15232 15343 15355    1
 15233 15344 15345    1
 15234 15344 15346    1
 15235 15344 15359    1
 15236 15347 15348    1
 15237 15347 15349    1
 15238 15347 15350    1
 15239 15351 15352    1
 15240 15351 15353    1
 15241 15351 15354    1
 15242 15355 15356    1
 15243 15355 15357    1
 15244 15355 15358    1
 15245 15359 15360    1
 15246 15359 15361    1
 15247 15359 15365    1
 15248 15362 15363    2
 15249 15362 15364    1
 15250 15362 15365    1
 15251 15362 15366    1
 15252 15366 15367    1
 15253 15367 15368    1
 15254 15367 15369    1
 15255 15367 15370    1
 15256 15370 15371    1
 15257 15370 15372    1
 15258 15370 15378    1
 15259 15372 15373    1
 15260 15373 15374    2
 15261 15373 15375    1
 15262 15375 15376    1
 15263 15375 15377    1
 15264 15375 15387    1
 15265 15378 15379    1
 15266 15378 15380    1
 15267 15378 15381    1
 15268 15381 15382    1
 15269 15382 15383    2
 15270 15382 15384    1
 15271 15384 15385    1
 15272 15384 15386    1
 15273 15384 15434    1
 15274 15387 15388    1
 15275 15387 15389    1
 15276 15387 15390    1
 15277 15390 15391    1
 15278 15390 15392    1
 15279 15390 15393    1
 15280 15393 15394    1
 15281 15393 15395    1
 15282 15393 15396    1
 15283 15396 15397    1
 15284 15396 15398    1
 15285 15396 15399    1
 15286 15399 15400    1
 15287 15399 15401    1
 15288 15399 15402    1
 15289 15402 15403    1
 15290 15402 15404    1
 15291 15402 15405    1
 15292 15405 15406    1
 15293 15405 15407    2
 15294 15407 15408    1
 15295 15407 15409    1
 15296 15409 15410    1
 15297 15409 15411    1
 15298 15409 15412    1
 15299 15412 15413    1
 15300 15412 15414    1
 15301 15412 15415    1
 15302 15415 15416    1
 15303 15415 15417    1
 15304 15415 15418    1
 15305 15418 15419    1
 15306 15418 15420    1
 15307 15418 15421    1
 15308 15421 15422    1
 15309 15421 15423    1
 15310 15421 15424    1
 15311 15424 15425    1
 15312 15424 15426    1
 15313 15424 15427    1
 15314 15427 15428    1
 15315 15427 15429    1
 15316 15427 15430    1
 15317 15430 15431    1
 15318 15430 15432    1
 15319 15430 15433    1
 15320 15434 15435    1
 15321 15434 15436    1
 15322 15434 15437    1
 15323 15437 15438    1
 15324 15437 15439    1
 15325 15437 15440    1
 15326 15440 15441    1
 15327 15440 15442    1
 15328 15440 15443    1
 15329 15443 15444    1
 15330 15443 15445    1
 15331 15443 15446    1
 15332 15446 15447    1
 15333 15446 15448    1
 15334 15446 15449    1
 15335 15449 15450    1
 15336 15449 15451    1
 15337 15449 15452    1
 15338 15452 15453    1
 15339 15452 15454    1
 15340 15452 15455    1
 15341 15455 15456    1
 15342 15455 15457    1
 15343 15455 15458    1
 15344 15458 15459    1
 15345 15458 15460    1
 15346 15458 15461    1
 15347 15461 15462    1
 15348 15461 15463    1
 15349 15461 15464    1
 15350 15464 15465    1
 15351 15464 15466    1
 15352 15464 15467    1
 15353 15467 15468    1
 15354 15467 15469    1
 15355 15467 15470    1
 15356 15470 15471    1
 15357 15470 15472    1
 15358 15470 15473    1
 15359 15473 15474    1
 15360 15473 15475    1
 15361 15473 15476    1
 15362 15477 15478    1
 15363 15477 15481    1
 15364 15477 15485    1
 15365 15477 15489    1
 15366 15478 15479    1
 15367 15478 15480    1
 15368 15478 15493    1
 15369 15481 15482    1
 15370 15481 15483    1
 15371 15481 15484    1
 15372 15485 15486    1
 15373 15485 15487    1
 15374 15485 15488    1
 15375 15489 15490    1
 15376 15489 15491    1
 15377 15489 15492    1
 15378 15493 15494    1
 15379 15493 15495    1
 15380 15493 15499    1
 15381 15496 15497    2
 15382 15496 15498    1
 15383 15496 15499    1
 15384 15496 15500    1
 15385 15500 15501    1
 15386 15501 15502    1
 15387 15501 15503    1
 15388 15501 15504    1
 15389 15504 15505    1
 15390 15504 15506    1
 15391 15504 15512    1
 15392 15506 15507    1
 15393 15507 15508    2
 15394 15507 15509    1
 15395 15509 15510    1
 15396 15509 15511    1
 15397 15509 15521    1
 15398 15512 15513    1
 15399 15512 15514    1
 15400 15512 15515    1
 15401 15515 15516    1
 15402 15516 15517    2
 15403 15516 15518    1
 15404 15518 15519    1
 15405 15518 15520    1
 15406 15518 15568    1
 15407 15521 15522    1
 15408 15521 15523    1
 15409 15521 15524    1
 15410 15524 15525    1
 15411 15524 15526    1
 15412 15524 15527    1
 15413 15527 15528    1
 15414 15527 15529    1
 15415 15527 15530    1
 15416 15530 15531    1
 15417 15530 15532    1
 15418 15530 15533    1
 15419 15533 15534    1
 15420 15533 15535    1
 15421 15533 15536    1
 15422 15536 15537    1
 15423 15536 15538    1
 15424 15536 15539    1
 15425 15539 15540    1
 15426 15539 15541    2
 15427 15541 15542    1
 15428 15541 15543    1
 15429 15543 15544    1
 15430 15543 15545    1
 15431 15543 15546    1
 15432 15546 15547    1
 15433 15546 15548    1
 15434 15546 15549    1
 15435 15549 15550    1
 15436 15549 15551    1
 15437 15549 15552    1
 15438 15552 15553    1
 15439 15552 15554    1
 15440 15552 15555    1
 15441 15555 15556    1
 15442 15555 15557    1
 15443 15555 15558    1
 15444 15558 15559    1
 15445 15558 15560    1
 15446 15558 15561    1
 15447 15561 15562    1
 15448 15561 15563    1
 15449 15561 15564    1
 15450 15564 15565    1
 15451 15564 15566    1
 15452 15564 15567    1
 15453 15568 15569    1
 15454 15568 15570    1
 15455 15568 15571    1
 15456 15571 15572    1
 15457 15571 15573    1
 15458 15571 15574    1
 15459 15574 15575    1
 15460 15574 15576    1
 15461 15574 15577    1
 15462 15577 15578    1
 15463 15577 15579    1
 15464 15577 15580    1
 15465 15580 15581    1
 15466 15580 15582    1
 15467 15580 15583    1
 15468 15583 15584    1
 15469 15583 15585    1
 15470 15583 15586    1
 15471 15586 15587    1
 15472 15586 15588    1
 15473 15586 15589    1
 15474 15589 15590    1
 15475 15589 15591    1
 15476 15589 15592    1
 15477 15592 15593    1
 15478 15592 15594    1
 15479 15592 15595    1
 15480 15595 15596    1
 15481 15595 15597    1
 15482 15595 15598    1
 15483 15598 15599    1
 15484 15598 15600    1
 15485 15598 15601    1
 15486 15601 15602    1
 15487 15601 15603    1
 15488 15601 15604    1
 15489 15604 15605    1
 15490 15604 15606    1
 15491 15604 15607    1
 15492 15607 15608    1
 15493 15607 15609    1
 15494 15607 15610    1
 15495 15611 15612    1
 15496 15611 15615    1
 15497 15611 15619    1
 15498 15611 15623    1
 15499 15612 15613    1
 15500 15612 15614    1
 15501 15612 15627    1
 15502 15615 15616    1
 15503 15615 15617    1
 15504 15615 15618    1
 15505 15619 15620    1
 15506 15619 15621    1
 15507 15619 15622    1
 15508 15623 15624    1
 15509 15623 15625    1
 15510 15623 15626    1
 15511 15627 15628    1
 15512 15627 15629    1
 15513 15627 15633    1
 15514 15630 15631    2
 15515 15630 15632    1
 15516 15630 15633    1
 15517 15630 15634    1
 15518 15634 15635    1
 15519 15635 15636    1
 15520 15635 15637    1
 15521 15635 15638    1
 15522 15638 15639    1
 15523 15638 15640    1
 15524 15638 15646    1
 15525 15640 15641    1
 15526 15641 15642    2
 15527 15641 15643    1
 15528 15643 15644    1
 15529 15643 15645    1
 15530 15643 15655    1
 15531 15646 15647    1
 15532 15646 15648    1
 15533 15646 15649    1
 15534 15649 15650    1
 15535 15650 15651    2
 15536 15650 15652    1
 15537 15652 15653    1
 15538 15652 15654    1
 15539 15652 15702    1
 15540 15655 15656    1
 15541 15655 15657    1
 15542 15655 15658    1
 15543 15658 15659    1
 15544 15658 15660    1
 15545 15658 15661    1
 15546 15661 15662    1
 15547 15661 15663    1
 15548 15661 15664    1
 15549 15664 15665    1
 15550 15664 15666    1
 15551 15664 15667    1
 15552 15667 15668    1
 15553 15667 15669    1
 15554 15667 15670    1
 15555 15670 15671    1
 15556 15670 15672    1
 15557 15670 15673    1
 15558 15673 15674    1
 15559 15673 15675    2
 15560 15675 15676    1
 15561 15675 15677    1
 15562 15677 15678    1
 15563 15677 15679    1
 15564 15677 15680    1
 15565 15680 15681    1
 15566 15680 15682    1
 15567 15680 15683    1
 15568 15683 15684    1
 15569 15683 15685    1
 15570 15683 15686    1
 15571 15686 15687    1
 15572 15686 15688    1
 15573 15686 15689    1
 15574 15689 15690    1
 15575 15689 15691    1
 15576 15689 15692    1
 15577 15692 15693    1
 15578 15692 15694    1
 15579 15692 15695    1
 15580 15695 15696    1
 15581 15695 15697    1
 15582 15695 15698    1
 15583 15698 15699    1
 15584 15698 15700    1
 15585 15698 15701    1
 15586 15702 15703    1
 15587 15702 15704    1
 15588 15702 15705    1
 15589 15705 15706    1
 15590 15705 15707    1
 15591 15705 15708    1
 15592 15708 15709    1
 15593 15708 15710    1
 15594 15708 15711    1
 15595 15711 15712    1
 15596 15711 15713    1
 15597 15711 15714    1
 15598 15714 15715    1
 15599 15714 15716    1
 15600 15714 15717    1
 15601 15717 15718    1
 15602 15717 15719    1
 15603 15717 15720    1
 15604 15720 15721    1
 15605 15720 15722    1
 15606 15720 15723    1
 15607 15723 15724    1
 15608 15723 15725    1
 15609 15723 15726    1
 15610 15726 15727    1
 15611 15726 15728    1
 15612 15726 15729    1
 15613 15729 15730    1
 15614 15729 15731    1
 15615 15729 15732    1
 15616 15732 15733    1
 15617 15732 15734    1
 15618 15732 15735    1
 15619 15735 15736    1
 15620 15735 15737    1
 15621 15735 15738    1
 15622 15738 15739    1
 15623 15738 15740    1
 15624 15738 15741    1
 15625 15741 15742    1
 15626 15741 15743    1
 15627 15741 15744    1
 15628 15745 15746    1
 15629 15745 15749    1
 15630 15745 15753    1
 15631 15745 15757    1
 15632 15746 15747    1
 15633 15746 15748    1
 15634 15746 15761    1
 15635 15749 15750    1
 15636 15749 15751    1
 15637 15749 15752    1
 15638 15753 15754    1
 15639 15753 15755    1
 15640 15753 15756    1
 15641 15757 15758    1
 15642 15757 15759    1
 15643 15757 15760    1
 15644 15761 15762    1
 15645 15761 15763    1
 15646 15761 15767    1
 15647 15764 15765    2
 15648 15764 15766    1
 15649 15764 15767    1
 15650 15764 15768    1
 15651 15768 15769    1
 15652 15769 15770    1
 15653 15769 15771    1
 15654 15769 15772    1
 15655 15772 15773    1
 15656 15772 15774    1
 15657 15772 15780    1
 15658 15774 15775    1
 15659 15775 15776    2
 15660 15775 15777    1
 15661 15777 15778    1
 15662 15777 15779    1
 15663 15777 15789    1
 15664 15780 15781    1
 15665 15780 15782    1
 15666 15780 15783    1
 15667 15783 15784    1
 15668 15784 15785    2
 15669 15784 15786    1
 15670 15786 15787    1
 15671 15786 15788    1
 15672 15786 15836    1
 15673 15789 15790    1
 15674 15789 15791    1
 15675 15789 15792    1
 15676 15792 15793    1
 15677 15792 15794    1
 15678 15792 15795    1
 15679 15795 15796    1
 15680 15795 15797    1
 15681 15795 15798    1
 15682 15798 15799    1
 15683 15798 15800    1
 15684 15798 15801    1
 15685 15801 15802    1
 15686 15801 15803    1
 15687 15801 15804    1
 15688 15804 15805    1
 15689 15804 15806    1
 15690 15804 15807    1
 15691 15807 15808    1
 15692 15807 15809    2
 15693 15809 15810    1
 15694 15809 15811    1
 15695 15811 15812    1
 15696 15811 15813    1
 15697 15811 15814    1
 15698 15814 15815    1
 15699 15814 15816    1
 15700 15814 15817    1
 15701 15817 15818    1
 15702 15817 15819    1
 15703 15817 15820    1
 15704 15820 15821    1
 15705 15820 15822    1
 15706 15820 15823    1
 15707 15823 15824    1
 15708 15823 15825    1
 15709 15823 15826    1
 15710 15826 15827    1
 15711 15826 15828    1
 15712 15826 15829    1
 15713 15829 15830    1
 15714 15829 15831    1
 15715 15829 15832    1
 15716 15832 15833    1
 15717 15832 15834    1
 15718 15832 15835    1
 15719 15836 15837    1
 15720 15836 15838    1
 15721 15836 15839    1
 15722 15839 15840    1
 15723 15839 15841    1
 15724 15839 15842    1
 15725 15842 15843    1
 15726 15842 15844    1
 15727 15842 15845    1
 15728 15845 15846    1
 15729 15845 15847    1
 15730 15845 15848    1
 15731 15848 15849    1
 15732 15848 15850    1
 15733 15848 15851    1
 15734 15851 15852    1
 15735 15851 15853    1
 15736 15851 15854    1
 15737 15854 15855    1
 15738 15854 15856    1
 15739 15854 15857    1
 15740 15857 15858    1
 15741 15857 15859    1
 15742 15857 15860    1
 15743 15860 15861    1
 15744 15860 15862    1
 15745 15860 15863    1
 15746 15863 15864    1
 15747 15863 15865    1
 15748 15863 15866    1
 15749 15866 15867    1
 15750 15866 15868    1
 15751 15866 15869    1
 15752 15869 15870    1
 15753 15869 15871    1
 15754 15869 15872    1
 15755 15872 15873    1
 15756 15872 15874    1
 15757 15872 15875    1
 15758 15875 15876    1
 15759 15875 15877    1
 15760 15875 15878    1
 15761 15879 15880    1
 15762 15879 15883    1
 15763 15879 15887    1
 15764 15879 15891    1
 15765 15880 15881    1
 15766 15880 15882    1
 15767 15880 15895    1
 15768 15883 15884    1
 15769 15883 15885    1
 15770 15883 15886    1
 15771 15887 15888    1
 15772 15887 15889    1
 15773 15887 15890    1
 15774 15891 15892    1
 15775 15891 15893    1
 15776 15891 15894    1
 15777 15895 15896    1
 15778 15895 15897    1
 15779 15895 15901    1
 15780 15898 15899    2
 15781 15898 15900    1
 15782 15898 15901    1
 15783 15898 15902    1
 15784 15902 15903    1
 15785 15903 15904    1
 15786 15903 15905    1
 15787 15903 15906    1
 15788 15906 15907    1
 15789 15906 15908    1
 15790 15906 15914    1
 15791 15908 15909    1
 15792 15909 15910    2
 15793 15909 15911    1
 15794 15911 15912    1
 15795 15911 15913    1
 15796 15911 15923    1
 15797 15914 15915    1
 15798 15914 15916    1
 15799 15914 15917    1
 15800 15917 15918    1
 15801 15918 15919    2
 15802 15918 15920    1
 15803 15920 15921    1
 15804 15920 15922    1
 15805 15920 15970    1
 15806 15923 15924    1
 15807 15923 15925    1
 15808 15923 15926    1
 15809 15926 15927    1
 15810 15926 15928    1
 15811 15926 15929    1
 15812 15929 15930    1
 15813 15929 15931    1
 15814 15929 15932    1
 15815 15932 15933    1
 15816 15932 15934    1
 15817 15932 15935    1
 15818 15935 15936    1
 15819 15935 15937    1
 15820 15935 15938    1
 15821 15938 15939    1
 15822 15938 15940    1
 15823 15938 15941    1
 15824 15941 15942    1
 15825 15941 15943    2
 15826 15943 15944    1
 15827 15943 15945    1
 15828 15945 15946    1
 15829 15945 15947    1
 15830 15945 15948    1
 15831 15948 15949    1
 15832 15948 15950    1
 15833 15948 15951    1
 15834 15951 15952    1
 15835 15951 15953    1
 15836 15951 15954    1
 15837 15954 15955    1
 15838 15954 15956    1
 15839 15954 15957    1
 15840 15957 15958    1
 15841 15957 15959    1
 15842 15957 15960    1
 15843 15960 15961    1
 15844 15960 15962    1
 15845 15960 15963    1
 15846 15963 15964    1
 15847 15963 15965    1
 15848 15963 15966    1
 15849 15966 15967    1
 15850 15966 15968    1
 15851 15966 15969    1
 15852 15970 15971    1
 15853 15970 15972    1
 15854 15970 15973    1
 15855 15973 15974    1
 15856 15973 15975    1
 15857 15973 15976    1
 15858 15976 15977    1
 15859 15976 15978    1
 15860 15976 15979    1
 15861 15979 15980    1
 15862 15979 15981    1
 15863 15979 15982    1
 15864 15982 15983    1
 15865 15982 15984    1
 15866 15982 15985    1
 15867 15985 15986    1
 15868 15985 15987    1
 15869 15985 15988    1
 15870 15988 15989    1
 15871 15988 15990    1
 15872 15988 15991    1
 15873 15991 15992    1
 15874 15991 15993    1
 15875 15991 15994    1
 15876 15994 15995    1
 15877 15994 15996    1
 15878 15994 15997    1
 15879 15997 15998    1
 15880 15997 15999    1
 15881 15997 16000    1
 15882 16000 16001    1
 15883 16000 16002    1
 15884 16000 16003    1
 15885 16003 16004    1
 15886 16003 16005    1
 15887 16003 16006    1
 15888 16006 16007    1
 15889 16006 16008    1
 15890 16006 16009    1
 15891 16009 16010    1
 15892 16009 16011    1
 15893 16009 16012    1
 15894 16013 16014    1
 15895 16013 16017    1
 15896 16013 16021    1
 15897 16013 16025    1
 15898 16014 16015    1
 15899 16014 16016    1
 15900 16014 16029    1
 15901 16017 16018    1
 15902 16017 16019    1
 15903 16017 16020    1
 15904 16021 16022    1
 15905 16021 16023    1
 15906 16021 16024    1
 15907 16025 16026    1
 15908 16025 16027    1
 15909 16025 16028    1
 15910 16029 16030    1
 15911 16029 16031    1
 15912 16029 16035    1
 15913 16032 16033    2
 15914 16032 16034    1
 15915 16032 16035    1
 15916 16032 16036    1
 15917 16036 16037    1
 15918 16037 16038    1
 15919 16037 16039    1
 15920 16037 16040    1
 15921 16040 16041    1
 15922 16040 16042    1
 15923 16040 16048    1
 15924 16042 16043    1
 15925 16043 16044    2
 15926 16043 16045    1
 15927 16045 16046    1
 15928 16045 16047    1
 15929 16045 16057    1
 15930 16048 16049    1
 15931 16048 16050    1
 15932 16048 16051    1
 15933 16051 16052    1
 15934 16052 16053    2
 15935 16052 16054    1
 15936 16054 16055    1
 15937 16054 16056    1
 15938 16054 16104    1
 15939 16057 16058    1
 15940 16057 16059    1
 15941 16057 16060    1
 15942 16060 16061    1
 15943 16060 16062    1
 15944 16060 16063    1
 15945 16063 16064    1
 15946 16063 16065    1
 15947 16063 16066    1
 15948 16066 16067    1
 15949 16066 16068    1
 15950 16066 16069    1
 15951 16069 16070    1
 15952 16069 16071    1
 15953 16069 16072    1
 15954 16072 16073    1
 15955 16072 16074    1
 15956 16072 16075    1
 15957 16075 16076    1
 15958 16075 16077    2
 15959 16077 16078    1
 15960 16077 16079    1
 15961 16079 16080    1
 15962 16079 16081    1
 15963 16079 16082    1
 15964 16082 16083    1
 15965 16082 16084    1
 15966 16082 16085    1
 15967 16085 16086    1
 15968 16085 16087    1
 15969 16085 16088    1
 15970 16088 16089    1
 15971 16088 16090    1
 15972 16088 16091    1
 15973 16091 16092    1
 15974 16091 16093    1
 15975 16091 16094    1
 15976 16094 16095    1
 15977 16094 16096    1
 15978 16094 16097    1
 15979 16097 16098    1
 15980 16097 16099    1
 15981 16097 16100    1
 15982 16100 16101    1
 15983 16100 16102    1
 15984 16100 16103    1
 15985 16104 16105    1
 15986 16104 16106    1
 15987 16104 16107    1
 15988 16107 16108    1
 15989 16107 16109    1
 15990 16107 16110    1
 15991 16110 16111    1
 15992 16110 16112    1
 15993 16110 16113    1
 15994 16113 16114    1
 15995 16113 16115    1
 15996 16113 16116    1
 15997 16116 16117    1
 15998 16116 16118    1
 15999 16116 16119    1
 16000 16119 16120    1
 16001 16119 16121    1
 16002 16119 16122    1
 16003 16122 16123    1
 16004 16122 16124    1
 16005 16122 16125    1
 16006 16125 16126    1
 16007 16125 16127    1
 16008 16125 16128    1
 16009 16128 16129    1
 16010 16128 16130    1
 16011 16128 16131    1
 16012 16131 16132    1
 16013 16131 16133    1
 16014 16131 16134    1
 16015 16134 16135    1
 16016 16134 16136    1
 16017 16134 16137    1
 16018 16137 16138    1
 16019 16137 16139    1
 16020 16137 16140    1
 16021 16140 16141    1
 16022 16140 16142    1
 16023 16140 16143    1
 16024 16143 16144    1
 16025 16143 16145    1
 16026 16143 16146    1
 16027 16147 16148    1
 16028 16147 16151    1
 16029 16147 16155    1
 16030 16147 16159    1
 16031 16148 16149    1
 16032 16148 16150    1
 16033 16148 16163    1
 16034 16151 16152    1
 16035 16151 16153    1
 16036 16151 16154    1
 16037 16155 16156    1
 16038 16155 16157    1
 16039 16155 16158    1
 16040 16159 16160    1
 16041 16159 16161    1
 16042 16159 16162    1
 16043 16163 16164    1
 16044 16163 16165    1
 16045 16163 16169    1
 16046 16166 16167    2
 16047 16166 16168    1
 16048 16166 16169    1
 16049 16166 16170    1
 16050 16170 16171    1
 16051 16171 16172    1
 16052 16171 16173    1
 16053 16171 16174    1
 16054 16174 16175    1
 16055 16174 16176    1
 16056 16174 16182    1
 16057 16176 16177    1
 16058 16177 16178    2
 16059 16177 16179    1
 16060 16179 16180    1
 16061 16179 16181    1
 16062 16179 16191    1
 16063 16182 16183    1
 16064 16182 16184    1
 16065 16182 16185    1
 16066 16185 16186    1
 16067 16186 16187    2
 16068 16186 16188    1
 16069 16188 16189    1
 16070 16188 16190    1
 16071 16188 16238    1
 16072 16191 16192    1
 16073 16191 16193    1
 16074 16191 16194    1
 16075 16194 16195    1
 16076 16194 16196    1
 16077 16194 16197    1
 16078 16197 16198    1
 16079 16197 16199    1
 16080 16197 16200    1
 16081 16200 16201    1
 16082 16200 16202    1
 16083 16200 16203    1
 16084 16203 16204    1
 16085 16203 16205    1
 16086 16203 16206    1
 16087 16206 16207    1
 16088 16206 16208    1
 16089 16206 16209    1
 16090 16209 16210    1
 16091 16209 16211    2
 16092 16211 16212    1
 16093 16211 16213    1
 16094 16213 16214    1
 16095 16213 16215    1
 16096 16213 16216    1
 16097 16216 16217    1
 16098 16216 16218    1
 16099 16216 16219    1
 16100 16219 16220    1
 16101 16219 16221    1
 16102 16219 16222    1
 16103 16222 16223    1
 16104 16222 16224    1
 16105 16222 16225    1
 16106 16225 16226    1
 16107 16225 16227    1
 16108 16225 16228    1
 16109 16228 16229    1
 16110 16228 16230    1
 16111 16228 16231    1
 16112 16231 16232    1
 16113 16231 16233    1
 16114 16231 16234    1
 16115 16234 16235    1
 16116 16234 16236    1
 16117 16234 16237    1
 16118 16238 16239    1
 16119 16238 16240    1
 16120 16238 16241    1
 16121 16241 16242    1
 16122 16241 16243    1
 16123 16241 16244    1
 16124 16244 16245    1
 16125 16244 16246    1
 16126 16244 16247    1
 16127 16247 16248    1
 16128 16247 16249    1
 16129 16247 16250    1
 16130 16250 16251    1
 16131 16250 16252    1
 16132 16250 16253    1
 16133 16253 16254    1
 16134 16253 16255    1
 16135 16253 16256    1
 16136 16256 16257    1
 16137 16256 16258    1
 16138 16256 16259    1
 16139 16259 16260    1
 16140 16259 16261    1
 16141 16259 16262    1
 16142 16262 16263    1
 16143 16262 16264    1
 16144 16262 16265    1
 16145 16265 16266    1
 16146 16265 16267    1
 16147 16265 16268    1
 16148 16268 16269    1
 16149 16268 16270    1
 16150 16268 16271    1
 16151 16271 16272    1
 16152 16271 16273    1
 16153 16271 16274    1
 16154 16274 16275    1
 16155 16274 16276    1
 16156 16274 16277    1
 16157 16277 16278    1
 16158 16277 16279    1
 16159 16277 16280    1
 16160 16281 16282    1
 16161 16281 16285    1
 16162 16281 16289    1
 16163 16281 16293    1
 16164 16282 16283    1
 16165 16282 16284    1
 16166 16282 16297    1
 16167 16285 16286    1
 16168 16285 16287    1
 16169 16285 16288    1
 16170 16289 16290    1
 16171 16289 16291    1
 16172 16289 16292    1
 16173 16293 16294    1
 16174 16293 16295    1
 16175 16293 16296    1
 16176 16297 16298    1
 16177 16297 16299    1
 16178 16297 16303    1
 16179 16300 16301    2
 16180 16300 16302    1
 16181 16300 16303    1
 16182 16300 16304    1
 16183 16304 16305    1
 16184 16305 16306    1
 16185 16305 16307    1
 16186 16305 16308    1
 16187 16308 16309    1
 16188 16308 16310    1
 16189 16308 16316    1
 16190 16310 16311    1
 16191 16311 16312    2
 16192 16311 16313    1
 16193 16313 16314    1
 16194 16313 16315    1
 16195 16313 16325    1
 16196 16316 16317    1
 16197 16316 16318    1
 16198 16316 16319    1
 16199 16319 16320    1
 16200 16320 16321    2
 16201 16320 16322    1
 16202 16322 16323    1
 16203 16322 16324    1
 16204 16322 16372    1
 16205 16325 16326    1
 16206 16325 16327    1
 16207 16325 16328    1
 16208 16328 16329    1
 16209 16328 16330    1
 16210 16328 16331    1
 16211 16331 16332    1
 16212 16331 16333    1
 16213 16331 16334    1
 16214 16334 16335    1
 16215 16334 16336    1
 16216 16334 16337    1
 16217 16337 16338    1
 16218 16337 16339    1
 16219 16337 16340    1
 16220 16340 16341    1
 16221 16340 16342    1
 16222 16340 16343    1
 16223 16343 16344    1
 16224 16343 16345    2
 16225 16345 16346    1
 16226 16345 16347    1
 16227 16347 16348    1
 16228 16347 16349    1
 16229 16347 16350    1
 16230 16350 16351    1
 16231 16350 16352    1
 16232 16350 16353    1
 16233 16353 16354    1
 16234 16353 16355    1
 16235 16353 16356    1
 16236 16356 16357    1
 16237 16356 16358    1
 16238 16356 16359    1
 16239 16359 16360    1
 16240 16359 16361    1
 16241 16359 16362    1
 16242 16362 16363    1
 16243 16362 16364    1
 16244 16362 16365    1
 16245 16365 16366    1
 16246 16365 16367    1
 16247 16365 16368    1
 16248 16368 16369    1
 16249 16368 16370    1
 16250 16368 16371    1
 16251 16372 16373    1
 16252 16372 16374    1
 16253 16372 16375    1
 16254 16375 16376    1
 16255 16375 16377    1
 16256 16375 16378    1
 16257 16378 16379    1
 16258 16378 16380    1
 16259 16378 16381    1
 16260 16381 16382    1
 16261 16381 16383    1
 16262 16381 16384    1
 16263 16384 16385    1
 16264 16384 16386    1
 16265 16384 16387    1
 16266 16387 16388    1
 16267 16387 16389    1
 16268 16387 16390    1
 16269 16390 16391    1
 16270 16390 16392    1
 16271 16390 16393    1
 16272 16393 16394    1
 16273 16393 16395    1
 16274 16393 16396    1
 16275 16396 16397    1
 16276 16396 16398    1
 16277 16396 16399    1
 16278 16399 16400    1
 16279 16399 16401    1
 16280 16399 16402    1
 16281 16402 16403    1
 16282 16402 16404    1
 16283 16402 16405    1
 16284 16405 16406    1
 16285 16405 16407    1
 16286 16405 16408    1
 16287 16408 16409    1
 16288 16408 16410    1
 16289 16408 16411    1
 16290 16411 16412    1
 16291 16411 16413    1
 16292 16411 16414    1
 16293 16415 16416    1
 16294 16415 16419    1
 16295 16415 16423    1
 16296 16415 16427    1
 16297 16416 16417    1
 16298 16416 16418    1
 16299 16416 16431    1
 16300 16419 16420    1
 16301 16419 16421    1
 16302 16419 16422    1
 16303 16423 16424    1
 16304 16423 16425    1
 16305 16423 16426    1
 16306 16427 16428    1
 16307 16427 16429    1
 16308 16427 16430    1
 16309 16431 16432    1
 16310 16431 16433    1
 16311 16431 16437    1
 16312 16434 16435    2
 16313 16434 16436    1
 16314 16434 16437    1
 16315 16434 16438    1
 16316 16438 16439    1
 16317 16439 16440    1
 16318 16439 16441    1
 16319 16439 16442    1
 16320 16442 16443    1
 16321 16442 16444    1
 16322 16442 16450    1
 16323 16444 16445    1
 16324 16445 16446    2
 16325 16445 16447    1
 16326 16447 16448    1
 16327 16447 16449    1
 16328 16447 16459    1
 16329 16450 16451    1
 16330 16450 16452    1
 16331 16450 16453    1
 16332 16453 16454    1
 16333 16454 16455    2
 16334 16454 16456    1
 16335 16456 16457    1
 16336 16456 16458    1
 16337 16456 16506    1
 16338 16459 16460    1
 16339 16459 16461    1
 16340 16459 16462    1
 16341 16462 16463    1
 16342 16462 16464    1
 16343 16462 16465    1
 16344 16465 16466    1
 16345 16465 16467    1
 16346 16465 16468    1
 16347 16468 16469    1
 16348 16468 16470    1
 16349 16468 16471    1
 16350 16471 16472    1
 16351 16471 16473    1
 16352 16471 16474    1
 16353 16474 16475    1
 16354 16474 16476    1
 16355 16474 16477    1
 16356 16477 16478    1
 16357 16477 16479    2
 16358 16479 16480    1
 16359 16479 16481    1
 16360 16481 16482    1
 16361 16481 16483    1
 16362 16481 16484    1
 16363 16484 16485    1
 16364 16484 16486    1
 16365 16484 16487    1
 16366 16487 16488    1
 16367 16487 16489    1
 16368 16487 16490    1
 16369 16490 16491    1
 16370 16490 16492    1
 16371 16490 16493    1
 16372 16493 16494    1
 16373 16493 16495    1
 16374 16493 16496    1
 16375 16496 16497    1
 16376 16496 16498    1
 16377 16496 16499    1
 16378 16499 16500    1
 16379 16499 16501    1
 16380 16499 16502    1
 16381 16502 16503    1
 16382 16502 16504    1
 16383 16502 16505    1
 16384 16506 16507    1
 16385 16506 16508    1
 16386 16506 16509    1
 16387 16509 16510    1
 16388 16509 16511    1
 16389 16509 16512    1
 16390 16512 16513    1
 16391 16512 16514    1
 16392 16512 16515    1
 16393 16515 16516    1
 16394 16515 16517    1
 16395 16515 16518    1
 16396 16518 16519    1
 16397 16518 16520    1
 16398 16518 16521    1
 16399 16521 16522    1
 16400 16521 16523    1
 16401 16521 16524    1
 16402 16524 16525    1
 16403 16524 16526    1
 16404 16524 16527    1
 16405 16527 16528    1
 16406 16527 16529    1
 16407 16527 16530    1
 16408 16530 16531    1
 16409 16530 16532    1
 16410 16530 16533    1
 16411 16533 16534    1
 16412 16533 16535    1
 16413 16533 16536    1
 16414 16536 16537    1
 16415 16536 16538    1
 16416 16536 16539    1
 16417 16539 16540    1
 16418 16539 16541    1
 16419 16539 16542    1
 16420 16542 16543    1
 16421 16542 16544    1
 16422 16542 16545    1
 16423 16545 16546    1
 16424 16545 16547    1
 16425 16545 16548    1
 16426 16549 16550    1
 16427 16549 16553    1
 16428 16549 16557    1
 16429 16549 16561    1
 16430 16550 16551    1
 16431 16550 16552    1
 16432 16550 16565    1
 16433 16553 16554    1
 16434 16553 16555    1
 16435 16553 16556    1
 16436 16557 16558    1
 16437 16557 16559    1
 16438 16557 16560    1
 16439 16561 16562    1
 16440 16561 16563    1
 16441 16561 16564    1
 16442 16565 16566    1
 16443 16565 16567    1
 16444 16565 16571    1
 16445 16568 16569    2
 16446 16568 16570    1
 16447 16568 16571    1
 16448 16568 16572    1
 16449 16572 16573    1
 16450 16573 16574    1
 16451 16573 16575    1
 16452 16573 16576    1
 16453 16576 16577    1
 16454 16576 16578    1
 16455 16576 16584    1
 16456 16578 16579    1
 16457 16579 16580    2
 16458 16579 16581    1
 16459 16581 16582    1
 16460 16581 16583    1
 16461 16581 16593    1
 16462 16584 16585    1
 16463 16584 16586    1
 16464 16584 16587    1
 16465 16587 16588    1
 16466 16588 16589    2
 16467 16588 16590    1
 16468 16590 16591    1
 16469 16590 16592    1
 16470 16590 16640    1
 16471 16593 16594    1
 16472 16593 16595    1
 16473 16593 16596    1
 16474 16596 16597    1
 16475 16596 16598    1
 16476 16596 16599    1
 16477 16599 16600    1
 16478 16599 16601    1
 16479 16599 16602    1
 16480 16602 16603    1
 16481 16602 16604    1
 16482 16602 16605    1
 16483 16605 16606    1
 16484 16605 16607    1
 16485 16605 16608    1
 16486 16608 16609    1
 16487 16608 16610    1
 16488 16608 16611    1
 16489 16611 16612    1
 16490 16611 16613    2
 16491 16613 16614    1
 16492 16613 16615    1
 16493 16615 16616    1
 16494 16615 16617    1
 16495 16615 16618    1
 16496 16618 16619    1
 16497 16618 16620    1
 16498 16618 16621    1
 16499 16621 16622    1
 16500 16621 16623    1
 16501 16621 16624    1
 16502 16624 16625    1
 16503 16624 16626    1
 16504 16624 16627    1
 16505 16627 16628    1
 16506 16627 16629    1
 16507 16627 16630    1
 16508 16630 16631    1
 16509 16630 16632    1
 16510 16630 16633    1
 16511 16633 16634    1
 16512 16633 16635    1
 16513 16633 16636    1
 16514 16636 16637    1
 16515 16636 16638    1
 16516 16636 16639    1
 16517 16640 16641    1
 16518 16640 16642    1
 16519 16640 16643    1
 16520 16643 16644    1
 16521 16643 16645    1
 16522 16643 16646    1
 16523 16646 16647    1
 16524 16646 16648    1
 16525 16646 16649    1
 16526 16649 16650    1
 16527 16649 16651    1
 16528 16649 16652    1
 16529 16652 16653    1
 16530 16652 16654    1
 16531 16652 16655    1
 16532 16655 16656    1
 16533 16655 16657    1
 16534 16655 16658    1
 16535 16658 16659    1
 16536 16658 16660    1
 16537 16658 16661    1
 16538 16661 16662    1
 16539 16661 16663    1
 16540 16661 16664    1
 16541 16664 16665    1
 16542 16664 16666    1
 16543 16664 16667    1
 16544 16667 16668    1
 16545 16667 16669    1
 16546 16667 16670    1
 16547 16670 16671    1
 16548 16670 16672    1
 16549 16670 16673    1
 16550 16673 16674    1
 16551 16673 16675    1
 16552 16673 16676    1
 16553 16676 16677    1
 16554 16676 16678    1
 16555 16676 16679    1
 16556 16679 16680    1
 16557 16679 16681    1
 16558 16679 16682    1
 16559 16683 16684    1
 16560 16683 16687    1
 16561 16683 16691    1
 16562 16683 16695    1
 16563 16684 16685    1
 16564 16684 16686    1
 16565 16684 16699    1
 16566 16687 16688    1
 16567 16687 16689    1
 16568 16687 16690    1
 16569 16691 16692    1
 16570 16691 16693    1
 16571 16691 16694    1
 16572 16695 16696    1
 16573 16695 16697    1
 16574 16695 16698    1
 16575 16699 16700    1
 16576 16699 16701    1
 16577 16699 16705    1
 16578 16702 16703    2
 16579 16702 16704    1
 16580 16702 16705    1
 16581 16702 16706    1
 16582 16706 16707    1
 16583 16707 16708    1
 16584 16707 16709    1
 16585 16707 16710    1
 16586 16710 16711    1
 16587 16710 16712    1
 16588 16710 16718    1
 16589 16712 16713    1
 16590 16713 16714    2
 16591 16713 16715    1
 16592 16715 16716    1
 16593 16715 16717    1
 16594 16715 16727    1
 16595 16718 16719    1
 16596 16718 16720    1
 16597 16718 16721    1
 16598 16721 16722    1
 16599 16722 16723    2
 16600 16722 16724    1
 16601 16724 16725    1
 16602 16724 16726    1
 16603 16724 16774    1
 16604 16727 16728    1
 16605 16727 16729    1
 16606 16727 16730    1
 16607 16730 16731    1
 16608 16730 16732    1
 16609 16730 16733    1
 16610 16733 16734    1
 16611 16733 16735    1
 16612 16733 16736    1
 16613 16736 16737    1
 16614 16736 16738    1
 16615 16736 16739    1
 16616 16739 16740    1
 16617 16739 16741    1
 16618 16739 16742    1
 16619 16742 16743    1
 16620 16742 16744    1
 16621 16742 16745    1
 16622 16745 16746    1
 16623 16745 16747    2
 16624 16747 16748    1
 16625 16747 16749    1
 16626 16749 16750    1
 16627 16749 16751    1
 16628 16749 16752    1
 16629 16752 16753    1
 16630 16752 16754    1
 16631 16752 16755    1
 16632 16755 16756    1
 16633 16755 16757    1
 16634 16755 16758    1
 16635 16758 16759    1
 16636 16758 16760    1
 16637 16758 16761    1
 16638 16761 16762    1
 16639 16761 16763    1
 16640 16761 16764    1
 16641 16764 16765    1
 16642 16764 16766    1
 16643 16764 16767    1
 16644 16767 16768    1
 16645 16767 16769    1
 16646 16767 16770    1
 16647 16770 16771    1
 16648 16770 16772    1
 16649 16770 16773    1
 16650 16774 16775    1
 16651 16774 16776    1
 16652 16774 16777    1
 16653 16777 16778    1
 16654 16777 16779    1
 16655 16777 16780    1
 16656 16780 16781    1
 16657 16780 16782    1
 16658 16780 16783    1
 16659 16783 16784    1
 16660 16783 16785    1
 16661 16783 16786    1
 16662 16786 16787    1
 16663 16786 16788    1
 16664 16786 16789    1
 16665 16789 16790    1
 16666 16789 16791    1
 16667 16789 16792    1
 16668 16792 16793    1
 16669 16792 16794    1
 16670 16792 16795    1
 16671 16795 16796    1
 16672 16795 16797    1
 16673 16795 16798    1
 16674 16798 16799    1
 16675 16798 16800    1
 16676 16798 16801    1
 16677 16801 16802    1
 16678 16801 16803    1
 16679 16801 16804    1
 16680 16804 16805    1
 16681 16804 16806    1
 16682 16804 16807    1
 16683 16807 16808    1
 16684 16807 16809    1
 16685 16807 16810    1
 16686 16810 16811    1
 16687 16810 16812    1
 16688 16810 16813    1
 16689 16813 16814    1
 16690 16813 16815    1
 16691 16813 16816    1
 16692 16817 16818    1
 16693 16817 16821    1
 16694 16817 16825    1
 16695 16817 16829    1
 16696 16818 16819    1
 16697 16818 16820    1
 16698 16818 16833    1
 16699 16821 16822    1
 16700 16821 16823    1
 16701 16821 16824    1
 16702 16825 16826    1
 16703 16825 16827    1
 16704 16825 16828    1
 16705 16829 16830    1
 16706 16829 16831    1
 16707 16829 16832    1
 16708 16833 16834    1
 16709 16833 16835    1
 16710 16833 16839    1
 16711 16836 16837    2
 16712 16836 16838    1
 16713 16836 16839    1
 16714 16836 16840    1
 16715 16840 16841    1
 16716 16841 16842    1
 16717 16841 16843    1
 16718 16841 16844    1
 16719 16844 16845    1
 16720 16844 16846    1
 16721 16844 16852    1
 16722 16846 16847    1
 16723 16847 16848    2
 16724 16847 16849    1
 16725 16849 16850    1
 16726 16849 16851    1
 16727 16849 16861    1
 16728 16852 16853    1
 16729 16852 16854    1
 16730 16852 16855    1
 16731 16855 16856    1
 16732 16856 16857    2
 16733 16856 16858    1
 16734 16858 16859    1
 16735 16858 16860    1
 16736 16858 16908    1
 16737 16861 16862    1
 16738 16861 16863    1
 16739 16861 16864    1
 16740 16864 16865    1
 16741 16864 16866    1
 16742 16864 16867    1
 16743 16867 16868    1
 16744 16867 16869    1
 16745 16867 16870    1
 16746 16870 16871    1
 16747 16870 16872    1
 16748 16870 16873    1
 16749 16873 16874    1
 16750 16873 16875    1
 16751 16873 16876    1
 16752 16876 16877    1
 16753 16876 16878    1
 16754 16876 16879    1
 16755 16879 16880    1
 16756 16879 16881    2
 16757 16881 16882    1
 16758 16881 16883    1
 16759 16883 16884    1
 16760 16883 16885    1
 16761 16883 16886    1
 16762 16886 16887    1
 16763 16886 16888    1
 16764 16886 16889    1
 16765 16889 16890    1
 16766 16889 16891    1
 16767 16889 16892    1
 16768 16892 16893    1
 16769 16892 16894    1
 16770 16892 16895    1
 16771 16895 16896    1
 16772 16895 16897    1
 16773 16895 16898    1
 16774 16898 16899    1
 16775 16898 16900    1
 16776 16898 16901    1
 16777 16901 16902    1
 16778 16901 16903    1
 16779 16901 16904    1
 16780 16904 16905    1
 16781 16904 16906    1
 16782 16904 16907    1
 16783 16908 16909    1
 16784 16908 16910    1
 16785 16908 16911    1
 16786 16911 16912    1
 16787 16911 16913    1
 16788 16911 16914    1
 16789 16914 16915    1
 16790 16914 16916    1
 16791 16914 16917    1
 16792 16917 16918    1
 16793 16917 16919    1
 16794 16917 16920    1
 16795 16920 16921    1
 16796 16920 16922    1
 16797 16920 16923    1
 16798 16923 16924    1
 16799 16923 16925    1
 16800 16923 16926    1
 16801 16926 16927    1
 16802 16926 16928    1
 16803 16926 16929    1
 16804 16929 16930    1
 16805 16929 16931    1
 16806 16929 16932    1
 16807 16932 16933    1
 16808 16932 16934    1
 16809 16932 16935    1
 16810 16935 16936    1
 16811 16935 16937    1
 16812 16935 16938    1
 16813 16938 16939    1
 16814 16938 16940    1
 16815 16938 16941    1
 16816 16941 16942    1
 16817 16941 16943    1
 16818 16941 16944    1
 16819 16944 16945    1
 16820 16944 16946    1
 16821 16944 16947    1
 16822 16947 16948    1
 16823 16947 16949    1
 16824 16947 16950    1
 16825 16951 16952    1
 16826 16951 16955    1
 16827 16951 16959    1
 16828 16951 16963    1
 16829 16952 16953    1
 16830 16952 16954    1
 16831 16952 16967    1
 16832 16955 16956    1
 16833 16955 16957    1
 16834 16955 16958    1
 16835 16959 16960    1
 16836 16959 16961    1
 16837 16959 16962    1
 16838 16963 16964    1
 16839 16963 16965    1
 16840 16963 16966    1
 16841 16967 16968    1
 16842 16967 16969    1
 16843 16967 16973    1
 16844 16970 16971    2
 16845 16970 16972    1
 16846 16970 16973    1
 16847 16970 16974    1
 16848 16974 16975    1
 16849 16975 16976    1
 16850 16975 16977    1
 16851 16975 16978    1
 16852 16978 16979    1
 16853 16978 16980    1
 16854 16978 16986    1
 16855 16980 16981    1
 16856 16981 16982    2
 16857 16981 16983    1
 16858 16983 16984    1
 16859 16983 16985    1
 16860 16983 16995    1
 16861 16986 16987    1
 16862 16986 16988    1
 16863 16986 16989    1
 16864 16989 16990    1
 16865 16990 16991    2
 16866 16990 16992    1
 16867 16992 16993    1
 16868 16992 16994    1
 16869 16992 17042    1
 16870 16995 16996    1
 16871 16995 16997    1
 16872 16995 16998    1
 16873 16998 16999    1
 16874 16998 17000    1
 16875 16998 17001    1
 16876 17001 17002    1
 16877 17001 17003    1
 16878 17001 17004    1
 16879 17004 17005    1
 16880 17004 17006    1
 16881 17004 17007    1
 16882 17007 17008    1
 16883 17007 17009    1
 16884 17007 17010    1
 16885 17010 17011    1
 16886 17010 17012    1
 16887 17010 17013    1
 16888 17013 17014    1
 16889 17013 17015    2
 16890 17015 17016    1
 16891 17015 17017    1
 16892 17017 17018    1
 16893 17017 17019    1
 16894 17017 17020    1
 16895 17020 17021    1
 16896 17020 17022    1
 16897 17020 17023    1
 16898 17023 17024    1
 16899 17023 17025    1
 16900 17023 17026    1
 16901 17026 17027    1
 16902 17026 17028    1
 16903 17026 17029    1
 16904 17029 17030    1
 16905 17029 17031    1
 16906 17029 17032    1
 16907 17032 17033    1
 16908 17032 17034    1
 16909 17032 17035    1
 16910 17035 17036    1
 16911 17035 17037    1
 16912 17035 17038    1
 16913 17038 17039    1
 16914 17038 17040    1
 16915 17038 17041    1
 16916 17042 17043    1
 16917 17042 17044    1
 16918 17042 17045    1
 16919 17045 17046    1
 16920 17045 17047    1
 16921 17045 17048    1
 16922 17048 17049    1
 16923 17048 17050    1
 16924 17048 17051    1
 16925 17051 17052    1
 16926 17051 17053    1
 16927 17051 17054    1
 16928 17054 17055    1
 16929 17054 17056    1
 16930 17054 17057    1
 16931 17057 17058    1
 16932 17057 17059    1
 16933 17057 17060    1
 16934 17060 17061    1
 16935 17060 17062    1
 16936 17060 17063    1
 16937 17063 17064    1
 16938 17063 17065    1
 16939 17063 17066    1
 16940 17066 17067    1
 16941 17066 17068    1
 16942 17066 17069    1
 16943 17069 17070    1
 16944 17069 17071    1
 16945 17069 17072    1
 16946 17072 17073    1
 16947 17072 17074    1
 16948 17072 17075    1
 16949 17075 17076    1
 16950 17075 17077    1
 16951 17075 17078    1
 16952 17078 17079    1
 16953 17078 17080    1
 16954 17078 17081    1
 16955 17081 17082    1
 16956 17081 17083    1
 16957 17081 17084    1
 16958 17085 17086    1
 16959 17085 17089    1
 16960 17085 17093    1
 16961 17085 17097    1
 16962 17086 17087    1
 16963 17086 17088    1
 16964 17086 17101    1
 16965 17089 17090    1
 16966 17089 17091    1
 16967 17089 17092    1
 16968 17093 17094    1
 16969 17093 17095    1
 16970 17093 17096    1
 16971 17097 17098    1
 16972 17097 17099    1
 16973 17097 17100    1
 16974 17101 17102    1
 16975 17101 17103    1
 16976 17101 17107    1
 16977 17104 17105    2
 16978 17104 17106    1
 16979 17104 17107    1
 16980 17104 17108    1
 16981 17108 17109    1
 16982 17109 17110    1
 16983 17109 17111    1
 16984 17109 17112    1
 16985 17112 17113    1
 16986 17112 17114    1
 16987 17112 17120    1
 16988 17114 17115    1
 16989 17115 17116    2
 16990 17115 17117    1
 16991 17117 17118    1
 16992 17117 17119    1
 16993 17117 17129    1
 16994 17120 17121    1
 16995 17120 17122    1
 16996 17120 17123    1
 16997 17123 17124    1
 16998 17124 17125    2
 16999 17124 17126    1
 17000 17126 17127    1
 17001 17126 17128    1
 17002 17126 17176    1
 17003 17129 17130    1
 17004 17129 17131    1
 17005 17129 17132    1
 17006 17132 17133    1
 17007 17132 17134    1
 17008 17132 17135    1
 17009 17135 17136    1
 17010 17135 17137    1
 17011 17135 17138    1
 17012 17138 17139    1
 17013 17138 17140    1
 17014 17138 17141    1
 17015 17141 17142    1
 17016 17141 17143    1
 17017 17141 17144    1
 17018 17144 17145    1
 17019 17144 17146    1
 17020 17144 17147    1
 17021 17147 17148    1
 17022 17147 17149    2
 17023 17149 17150    1
 17024 17149 17151    1
 17025 17151 17152    1
 17026 17151 17153    1
 17027 17151 17154    1
 17028 17154 17155    1
 17029 17154 17156    1
 17030 17154 17157    1
 17031 17157 17158    1
 17032 17157 17159    1
 17033 17157 17160    1
 17034 17160 17161    1
 17035 17160 17162    1
 17036 17160 17163    1
 17037 17163 17164    1
 17038 17163 17165    1
 17039 17163 17166    1
 17040 17166 17167    1
 17041 17166 17168    1
 17042 17166 17169    1
 17043 17169 17170    1
 17044 17169 17171    1
 17045 17169 17172    1
 17046 17172 17173    1
 17047 17172 17174    1
 17048 17172 17175    1
 17049 17176 17177    1
 17050 17176 17178    1
 17051 17176 17179    1
 17052 17179 17180    1
 17053 17179 17181    1
 17054 17179 17182    1
 17055 17182 17183    1
 17056 17182 17184    1
 17057 17182 17185    1
 17058 17185 17186    1
 17059 17185 17187    1
 17060 17185 17188    1
 17061 17188 17189    1
 17062 17188 17190    1
 17063 17188 17191    1
 17064 17191 17192    1
 17065 17191 17193    1
 17066 17191 17194    1
 17067 17194 17195    1
 17068 17194 17196    1
 17069 17194 17197    1
 17070 17197 17198    1
 17071 17197 17199    1
 17072 17197 17200    1
 17073 17200 17201    1
 17074 17200 17202    1
 17075 17200 17203    1
 17076 17203 17204    1
 17077 17203 17205    1
 17078 17203 17206    1
 17079 17206 17207    1
 17080 17206 17208    1
 17081 17206 17209    1
 17082 17209 17210    1
 17083 17209 17211    1
 17084 17209 17212    1
 17085 17212 17213    1
 17086 17212 17214    1
 17087 17212 17215    1
 17088 17215 17216    1
 17089 17215 17217    1
 17090 17215 17218    1
 17091 17219 17220    1
 17092 17219 17223    1
 17093 17219 17227    1
 17094 17219 17231    1
 17095 17220 17221    1
 17096 17220 17222    1
 17097 17220 17235    1
 17098 17223 17224    1
 17099 17223 17225    1
 17100 17223 17226    1
 17101 17227 17228    1
 17102 17227 17229    1
 17103 17227 17230    1
 17104 17231 17232    1
 17105 17231 17233    1
 17106 17231 17234    1
 17107 17235 17236    1
 17108 17235 17237    1
 17109 17235 17241    1
 17110 17238 17239    2
 17111 17238 17240    1
 17112 17238 17241    1
 17113 17238 17242    1
 17114 17242 17243    1
 17115 17243 17244    1
 17116 17243 17245    1
 17117 17243 17246    1
 17118 17246 17247    1
 17119 17246 17248    1
 17120 17246 17254    1
 17121 17248 17249    1
 17122 17249 17250    2
 17123 17249 17251    1
 17124 17251 17252    1
 17125 17251 17253    1
 17126 17251 17263    1
 17127 17254 17255    1
 17128 17254 17256    1
 17129 17254 17257    1
 17130 17257 17258    1
 17131 17258 17259    2
 17132 17258 17260    1
 17133 17260 17261    1
 17134 17260 17262    1
 17135 17260 17310    1
 17136 17263 17264    1
 17137 17263 17265    1
 17138 17263 17266    1
 17139 17266 17267    1
 17140 17266 17268    1
 17141 17266 17269    1
 17142 17269 17270    1
 17143 17269 17271    1
 17144 17269 17272    1
 17145 17272 17273    1
 17146 17272 17274    1
 17147 17272 17275    1
 17148 17275 17276    1
 17149 17275 17277    1
 17150 17275 17278    1
 17151 17278 17279    1
 17152 17278 17280    1
 17153 17278 17281    1
 17154 17281 17282    1
 17155 17281 17283    2
 17156 17283 17284    1
 17157 17283 17285    1
 17158 17285 17286    1
 17159 17285 17287    1
 17160 17285 17288    1
 17161 17288 17289    1
 17162 17288 17290    1
 17163 17288 17291    1
 17164 17291 17292    1
 17165 17291 17293    1
 17166 17291 17294    1
 17167 17294 17295    1
 17168 17294 17296    1
 17169 17294 17297    1
 17170 17297 17298    1
 17171 17297 17299    1
 17172 17297 17300    1
 17173 17300 17301    1
 17174 17300 17302    1
 17175 17300 17303    1
 17176 17303 17304    1
 17177 17303 17305    1
 17178 17303 17306    1
 17179 17306 17307    1
 17180 17306 17308    1
 17181 17306 17309    1
 17182 17310 17311    1
 17183 17310 17312    1
 17184 17310 17313    1
 17185 17313 17314    1
 17186 17313 17315    1
 17187 17313 17316    1
 17188 17316 17317    1
 17189 17316 17318    1
 17190 17316 17319    1
 17191 17319 17320    1
 17192 17319 17321    1
 17193 17319 17322    1
 17194 17322 17323    1
 17195 17322 17324    1
 17196 17322 17325    1
 17197 17325 17326    1
 17198 17325 17327    1
 17199 17325 17328    1
 17200 17328 17329    1
 17201 17328 17330    1
 17202 17328 17331    1
 17203 17331 17332    1
 17204 17331 17333    1
 17205 17331 17334    1
 17206 17334 17335    1
 17207 17334 17336    1
 17208 17334 17337    1
 17209 17337 17338    1
 17210 17337 17339    1
 17211 17337 17340    1
 17212 17340 17341    1
 17213 17340 17342    1
 17214 17340 17343    1
 17215 17343 17344    1
 17216 17343 17345    1
 17217 17343 17346    1
 17218 17346 17347    1
 17219 17346 17348    1
 17220 17346 17349    1
 17221 17349 17350    1
 17222 17349 17351    1
 17223 17349 17352    1
 17224 17353 17354    1
 17225 17353 17357    1
 17226 17353 17361    1
 17227 17353 17365    1
 17228 17354 17355    1
 17229 17354 17356    1
 17230 17354 17369    1
 17231 17357 17358    1
 17232 17357 17359    1
 17233 17357 17360    1
 17234 17361 17362    1
 17235 17361 17363    1
 17236 17361 17364    1
 17237 17365 17366    1
 17238 17365 17367    1
 17239 17365 17368    1
 17240 17369 17370    1
 17241 17369 17371    1
 17242 17369 17375    1
 17243 17372 17373    2
 17244 17372 17374    1
 17245 17372 17375    1
 17246 17372 17376    1
 17247 17376 17377    1
 17248 17377 17378    1
 17249 17377 17379    1
 17250 17377 17380    1
 17251 17380 17381    1
 17252 17380 17382    1
 17253 17380 17388    1
 17254 17382 17383    1
 17255 17383 17384    2
 17256 17383 17385    1
 17257 17385 17386    1
 17258 17385 17387    1
 17259 17385 17397    1
 17260 17388 17389    1
 17261 17388 17390    1
 17262 17388 17391    1
 17263 17391 17392    1
 17264 17392 17393    2
 17265 17392 17394    1
 17266 17394 17395    1
 17267 17394 17396    1
 17268 17394 17444    1
 17269 17397 17398    1
 17270 17397 17399    1
 17271 17397 17400    1
 17272 17400 17401    1
 17273 17400 17402    1
 17274 17400 17403    1
 17275 17403 17404    1
 17276 17403 17405    1
 17277 17403 17406    1
 17278 17406 17407    1
 17279 17406 17408    1
 17280 17406 17409    1
 17281 17409 17410    1
 17282 17409 17411    1
 17283 17409 17412    1
 17284 17412 17413    1
 17285 17412 17414    1
 17286 17412 17415    1
 17287 17415 17416    1
 17288 17415 17417    2
 17289 17417 17418    1
 17290 17417 17419    1
 17291 17419 17420    1
 17292 17419 17421    1
 17293 17419 17422    1
 17294 17422 17423    1
 17295 17422 17424    1
 17296 17422 17425    1
 17297 17425 17426    1
 17298 17425 17427    1
 17299 17425 17428    1
 17300 17428 17429    1
 17301 17428 17430    1
 17302 17428 17431    1
 17303 17431 17432    1
 17304 17431 17433    1
 17305 17431 17434    1
 17306 17434 17435    1
 17307 17434 17436    1
 17308 17434 17437    1
 17309 17437 17438    1
 17310 17437 17439    1
 17311 17437 17440    1
 17312 17440 17441    1
 17313 17440 17442    1
 17314 17440 17443    1
 17315 17444 17445    1
 17316 17444 17446    1
 17317 17444 17447    1
 17318 17447 17448    1
 17319 17447 17449    1
 17320 17447 17450    1
 17321 17450 17451    1
 17322 17450 17452    1
 17323 17450 17453    1
 17324 17453 17454    1
 17325 17453 17455    1
 17326 17453 17456    1
 17327 17456 17457    1
 17328 17456 17458    1
 17329 17456 17459    1
 17330 17459 17460    1
 17331 17459 17461    1
 17332 17459 17462    1
 17333 17462 17463    1
 17334 17462 17464    1
 17335 17462 17465    1
 17336 17465 17466    1
 17337 17465 17467    1
 17338 17465 17468    1
 17339 17468 17469    1
 17340 17468 17470    1
 17341 17468 17471    1
 17342 17471 17472    1
 17343 17471 17473    1
 17344 17471 17474    1
 17345 17474 17475    1
 17346 17474 17476    1
 17347 17474 17477    1
 17348 17477 17478    1
 17349 17477 17479    1
 17350 17477 17480    1
 17351 17480 17481    1
 17352 17480 17482    1
 17353 17480 17483    1
 17354 17483 17484    1
 17355 17483 17485    1
 17356 17483 17486    1
 17357 17487 17488    1
 17358 17487 17491    1
 17359 17487 17495    1
 17360 17487 17499    1
 17361 17488 17489    1
 17362 17488 17490    1
 17363 17488 17503    1
 17364 17491 17492    1
 17365 17491 17493    1
 17366 17491 17494    1
 17367 17495 17496    1
 17368 17495 17497    1
 17369 17495 17498    1
 17370 17499 17500    1
 17371 17499 17501    1
 17372 17499 17502    1
 17373 17503 17504    1
 17374 17503 17505    1
 17375 17503 17509    1
 17376 17506 17507    2
 17377 17506 17508    1
 17378 17506 17509    1
 17379 17506 17510    1
 17380 17510 17511    1
 17381 17511 17512    1
 17382 17511 17513    1
 17383 17511 17514    1
 17384 17514 17515    1
 17385 17514 17516    1
 17386 17514 17522    1
 17387 17516 17517    1
 17388 17517 17518    2
 17389 17517 17519    1
 17390 17519 17520    1
 17391 17519 17521    1
 17392 17519 17531    1
 17393 17522 17523    1
 17394 17522 17524    1
 17395 17522 17525    1
 17396 17525 17526    1
 17397 17526 17527    2
 17398 17526 17528    1
 17399 17528 17529    1
 17400 17528 17530    1
 17401 17528 17578    1
 17402 17531 17532    1
 17403 17531 17533    1
 17404 17531 17534    1
 17405 17534 17535    1
 17406 17534 17536    1
 17407 17534 17537    1
 17408 17537 17538    1
 17409 17537 17539    1
 17410 17537 17540    1
 17411 17540 17541    1
 17412 17540 17542    1
 17413 17540 17543    1
 17414 17543 17544    1
 17415 17543 17545    1
 17416 17543 17546    1
 17417 17546 17547    1
 17418 17546 17548    1
 17419 17546 17549    1
 17420 17549 17550    1
 17421 17549 17551    2
 17422 17551 17552    1
 17423 17551 17553    1
 17424 17553 17554    1
 17425 17553 17555    1
 17426 17553 17556    1
 17427 17556 17557    1
 17428 17556 17558    1
 17429 17556 17559    1
 17430 17559 17560    1
 17431 17559 17561    1
 17432 17559 17562    1
 17433 17562 17563    1
 17434 17562 17564    1
 17435 17562 17565    1
 17436 17565 17566    1
 17437 17565 17567    1
 17438 17565 17568    1
 17439 17568 17569    1
 17440 17568 17570    1
 17441 17568 17571    1
 17442 17571 17572    1
 17443 17571 17573    1
 17444 17571 17574    1
 17445 17574 17575    1
 17446 17574 17576    1
 17447 17574 17577    1
 17448 17578 17579    1
 17449 17578 17580    1
 17450 17578 17581    1
 17451 17581 17582    1
 17452 17581 17583    1
 17453 17581 17584    1
 17454 17584 17585    1
 17455 17584 17586    1
 17456 17584 17587    1
 17457 17587 17588    1
 17458 17587 17589    1
 17459 17587 17590    1
 17460 17590 17591    1
 17461 17590 17592    1
 17462 17590 17593    1
 17463 17593 17594    1
 17464 17593 17595    1
 17465 17593 17596    1
 17466 17596 17597    1
 17467 17596 17598    1
 17468 17596 17599    1
 17469 17599 17600    1
 17470 17599 17601    1
 17471 17599 17602    1
 17472 17602 17603    1
 17473 17602 17604    1
 17474 17602 17605    1
 17475 17605 17606    1
 17476 17605 17607    1
 17477 17605 17608    1
 17478 17608 17609    1
 17479 17608 17610    1
 17480 17608 17611    1
 17481 17611 17612    1
 17482 17611 17613    1
 17483 17611 17614    1
 17484 17614 17615    1
 17485 17614 17616    1
 17486 17614 17617    1
 17487 17617 17618    1
 17488 17617 17619    1
 17489 17617 17620    1
 17490 17621 17622    1
 17491 17621 17625    1
 17492 17621 17629    1
 17493 17621 17633    1
 17494 17622 17623    1
 17495 17622 17624    1
 17496 17622 17637    1
 17497 17625 17626    1
 17498 17625 17627    1
 17499 17625 17628    1
 17500 17629 17630    1
 17501 17629 17631    1
 17502 17629 17632    1
 17503 17633 17634    1
 17504 17633 17635    1
 17505 17633 17636    1
 17506 17637 17638    1
 17507 17637 17639    1
 17508 17637 17643    1
 17509 17640 17641    2
 17510 17640 17642    1
 17511 17640 17643    1
 17512 17640 17644    1
 17513 17644 17645    1
 17514 17645 17646    1
 17515 17645 17647    1
 17516 17645 17648    1
 17517 17648 17649    1
 17518 17648 17650    1
 17519 17648 17656    1
 17520 17650 17651    1
 17521 17651 17652    2
 17522 17651 17653    1
 17523 17653 17654    1
 17524 17653 17655    1
 17525 17653 17665    1
 17526 17656 17657    1
 17527 17656 17658    1
 17528 17656 17659    1
 17529 17659 17660    1
 17530 17660 17661    2
 17531 17660 17662    1
 17532 17662 17663    1
 17533 17662 17664    1
 17534 17662 17712    1
 17535 17665 17666    1
 17536 17665 17667    1
 17537 17665 17668    1
 17538 17668 17669    1
 17539 17668 17670    1
 17540 17668 17671    1
 17541 17671 17672    1
 17542 17671 17673    1
 17543 17671 17674    1
 17544 17674 17675    1
 17545 17674 17676    1
 17546 17674 17677    1
 17547 17677 17678    1
 17548 17677 17679    1
 17549 17677 17680    1
 17550 17680 17681    1
 17551 17680 17682    1
 17552 17680 17683    1
 17553 17683 17684    1
 17554 17683 17685    2
 17555 17685 17686    1
 17556 17685 17687    1
 17557 17687 17688    1
 17558 17687 17689    1
 17559 17687 17690    1
 17560 17690 17691    1
 17561 17690 17692    1
 17562 17690 17693    1
 17563 17693 17694    1
 17564 17693 17695    1
 17565 17693 17696    1
 17566 17696 17697    1
 17567 17696 17698    1
 17568 17696 17699    1
 17569 17699 17700    1
 17570 17699 17701    1
 17571 17699 17702    1
 17572 17702 17703    1
 17573 17702 17704    1
 17574 17702 17705    1
 17575 17705 17706    1
 17576 17705 17707    1
 17577 17705 17708    1
 17578 17708 17709    1
 17579 17708 17710    1
 17580 17708 17711    1
 17581 17712 17713    1
 17582 17712 17714    1
 17583 17712 17715    1
 17584 17715 17716    1
 17585 17715 17717    1
 17586 17715 17718    1
 17587 17718 17719    1
 17588 17718 17720    1
 17589 17718 17721    1
 17590 17721 17722    1
 17591 17721 17723    1
 17592 17721 17724    1
 17593 17724 17725    1
 17594 17724 17726    1
 17595 17724 17727    1
 17596 17727 17728    1
 17597 17727 17729    1
 17598 17727 17730    1
 17599 17730 17731    1
 17600 17730 17732    1
 17601 17730 17733    1
 17602 17733 17734    1
 17603 17733 17735    1
 17604 17733 17736    1
 17605 17736 17737    1
 17606 17736 17738    1
 17607 17736 17739    1
 17608 17739 17740    1
 17609 17739 17741    1
 17610 17739 17742    1
 17611 17742 17743    1
 17612 17742 17744    1
 17613 17742 17745    1
 17614 17745 17746    1
 17615 17745 17747    1
 17616 17745 17748    1
 17617 17748 17749    1
 17618 17748 17750    1
 17619 17748 17751    1
 17620 17751 17752    1
 17621 17751 17753    1
 17622 17751 17754    1
 17623 17755 17756    1
 17624 17755 17759    1
 17625 17755 17763    1
 17626 17755 17767    1
 17627 17756 17757    1
 17628 17756 17758    1
 17629 17756 17771    1
 17630 17759 17760    1
 17631 17759 17761    1
 17632 17759 17762    1
 17633 17763 17764    1
 17634 17763 17765    1
 17635 17763 17766    1
 17636 17767 17768    1
 17637 17767 17769    1
 17638 17767 17770    1
 17639 17771 17772    1
 17640 17771 17773    1
 17641 17771 17777    1
 17642 17774 17775    2
 17643 17774 17776    1
 17644 17774 17777    1
 17645 17774 17778    1
 17646 17778 17779    1
 17647 17779 17780    1
 17648 17779 17781    1
 17649 17779 17782    1
 17650 17782 17783    1
 17651 17782 17784    1
 17652 17782 17790    1
 17653 17784 17785    1
 17654 17785 17786    2
 17655 17785 17787    1
 17656 17787 17788    1
 17657 17787 17789    1
 17658 17787 17799    1
 17659 17790 17791    1
 17660 17790 17792    1
 17661 17790 17793    1
 17662 17793 17794    1
 17663 17794 17795    2
 17664 17794 17796    1
 17665 17796 17797    1
 17666 17796 17798    1
 17667 17796 17846    1
 17668 17799 17800    1
 17669 17799 17801    1
 17670 17799 17802    1
 17671 17802 17803    1
 17672 17802 17804    1
 17673 17802 17805    1
 17674 17805 17806    1
 17675 17805 17807    1
 17676 17805 17808    1
 17677 17808 17809    1
 17678 17808 17810    1
 17679 17808 17811    1
 17680 17811 17812    1
 17681 17811 17813    1
 17682 17811 17814    1
 17683 17814 17815    1
 17684 17814 17816    1
 17685 17814 17817    1
 17686 17817 17818    1
 17687 17817 17819    2
 17688 17819 17820    1
 17689 17819 17821    1
 17690 17821 17822    1
 17691 17821 17823    1
 17692 17821 17824    1
 17693 17824 17825    1
 17694 17824 17826    1
 17695 17824 17827    1
 17696 17827 17828    1
 17697 17827 17829    1
 17698 17827 17830    1
 17699 17830 17831    1
 17700 17830 17832    1
 17701 17830 17833    1
 17702 17833 17834    1
 17703 17833 17835    1
 17704 17833 17836    1
 17705 17836 17837    1
 17706 17836 17838    1
 17707 17836 17839    1
 17708 17839 17840    1
 17709 17839 17841    1
 17710 17839 17842    1
 17711 17842 17843    1
 17712 17842 17844    1
 17713 17842 17845    1
 17714 17846 17847    1
 17715 17846 17848    1
 17716 17846 17849    1
 17717 17849 17850    1
 17718 17849 17851    1
 17719 17849 17852    1
 17720 17852 17853    1
 17721 17852 17854    1
 17722 17852 17855    1
 17723 17855 17856    1
 17724 17855 17857    1
 17725 17855 17858    1
 17726 17858 17859    1
 17727 17858 17860    1
 17728 17858 17861    1
 17729 17861 17862    1
 17730 17861 17863    1
 17731 17861 17864    1
 17732 17864 17865    1
 17733 17864 17866    1
 17734 17864 17867    1
 17735 17867 17868    1
 17736 17867 17869    1
 17737 17867 17870    1
 17738 17870 17871    1
 17739 17870 17872    1
 17740 17870 17873    1
 17741 17873 17874    1
 17742 17873 17875    1
 17743 17873 17876    1
 17744 17876 17877    1
 17745 17876 17878    1
 17746 17876 17879    1
 17747 17879 17880    1
 17748 17879 17881    1
 17749 17879 17882    1
 17750 17882 17883    1
 17751 17882 17884    1
 17752 17882 17885    1
 17753 17885 17886    1
 17754 17885 17887    1
 17755 17885 17888    1
 17756 17889 17890    1
 17757 17889 17893    1
 17758 17889 17897    1
 17759 17889 17901    1
 17760 17890 17891    1
 17761 17890 17892    1
 17762 17890 17905    1
 17763 17893 17894    1
 17764 17893 17895    1
 17765 17893 17896    1
 17766 17897 17898    1
 17767 17897 17899    1
 17768 17897 17900    1
 17769 17901 17902    1
 17770 17901 17903    1
 17771 17901 17904    1
 17772 17905 17906    1
 17773 17905 17907    1
 17774 17905 17911    1
 17775 17908 17909    2
 17776 17908 17910    1
 17777 17908 17911    1
 17778 17908 17912    1
 17779 17912 17913    1
 17780 17913 17914    1
 17781 17913 17915    1
 17782 17913 17916    1
 17783 17916 17917    1
 17784 17916 17918    1
 17785 17916 17924    1
 17786 17918 17919    1
 17787 17919 17920    2
 17788 17919 17921    1
 17789 17921 17922    1
 17790 17921 17923    1
 17791 17921 17933    1
 17792 17924 17925    1
 17793 17924 17926    1
 17794 17924 17927    1
 17795 17927 17928    1
 17796 17928 17929    2
 17797 17928 17930    1
 17798 17930 17931    1
 17799 17930 17932    1
 17800 17930 17980    1
 17801 17933 17934    1
 17802 17933 17935    1
 17803 17933 17936    1
 17804 17936 17937    1
 17805 17936 17938    1
 17806 17936 17939    1
 17807 17939 17940    1
 17808 17939 17941    1
 17809 17939 17942    1
 17810 17942 17943    1
 17811 17942 17944    1
 17812 17942 17945    1
 17813 17945 17946    1
 17814 17945 17947    1
 17815 17945 17948    1
 17816 17948 17949    1
 17817 17948 17950    1
 17818 17948 17951    1
 17819 17951 17952    1
 17820 17951 17953    2
 17821 17953 17954    1
 17822 17953 17955    1
 17823 17955 17956    1
 17824 17955 17957    1
 17825 17955 17958    1
 17826 17958 17959    1
 17827 17958 17960    1
 17828 17958 17961    1
 17829 17961 17962    1
 17830 17961 17963    1
 17831 17961 17964    1
 17832 17964 17965    1
 17833 17964 17966    1
 17834 17964 17967    1
 17835 17967 17968    1
 17836 17967 17969    1
 17837 17967 17970    1
 17838 17970 17971    1
 17839 17970 17972    1
 17840 17970 17973    1
 17841 17973 17974    1
 17842 17973 17975    1
 17843 17973 17976    1
 17844 17976 17977    1
 17845 17976 17978    1
 17846 17976 17979    1
 17847 17980 17981    1
 17848 17980 17982    1
 17849 17980 17983    1
 17850 17983 17984    1
 17851 17983 17985    1
 17852 17983 17986    1
 17853 17986 17987    1
 17854 17986 17988    1
 17855 17986 17989    1
 17856 17989 17990    1
 17857 17989 17991    1
 17858 17989 17992    1
 17859 17992 17993    1
 17860 17992 17994    1
 17861 17992 17995    1
 17862 17995 17996    1
 17863 17995 17997    1
 17864 17995 17998    1
 17865 17998 17999    1
 17866 17998 18000    1
 17867 17998 18001    1
 17868 18001 18002    1
 17869 18001 18003    1
 17870 18001 18004    1
 17871 18004 18005    1
 17872 18004 18006    1
 17873 18004 18007    1
 17874 18007 18008    1
 17875 18007 18009    1
 17876 18007 18010    1
 17877 18010 18011    1
 17878 18010 18012    1
 17879 18010 18013    1
 17880 18013 18014    1
 17881 18013 18015    1
 17882 18013 18016    1
 17883 18016 18017    1
 17884 18016 18018    1
 17885 18016 18019    1
 17886 18019 18020    1
 17887 18019 18021    1
 17888 18019 18022    1
 17889 18023 18024    1
 17890 18023 18027    1
 17891 18023 18031    1
 17892 18023 18035    1
 17893 18024 18025    1
 17894 18024 18026    1
 17895 18024 18039    1
 17896 18027 18028    1
 17897 18027 18029    1
 17898 18027 18030    1
 17899 18031 18032    1
 17900 18031 18033    1
 17901 18031 18034    1
 17902 18035 18036    1
 17903 18035 18037    1
 17904 18035 18038    1
 17905 18039 18040    1
 17906 18039 18041    1
 17907 18039 18045    1
 17908 18042 18043    2
 17909 18042 18044    1
 17910 18042 18045    1
 17911 18042 18046    1
 17912 18046 18047    1
 17913 18047 18048    1
 17914 18047 18049    1
 17915 18047 18050    1
 17916 18050 18051    1
 17917 18050 18052    1
 17918 18050 18058    1
 17919 18052 18053    1
 17920 18053 18054    2
 17921 18053 18055    1
 17922 18055 18056    1
 17923 18055 18057    1
 17924 18055 18067    1
 17925 18058 18059    1
 17926 18058 18060    1
 17927 18058 18061    1
 17928 18061 18062    1
 17929 18062 18063    2
 17930 18062 18064    1
 17931 18064 18065    1
 17932 18064 18066    1
 17933 18064 18114    1
 17934 18067 18068    1
 17935 18067 18069    1
 17936 18067 18070    1
 17937 18070 18071    1
 17938 18070 18072    1
 17939 18070 18073    1
 17940 18073 18074    1
 17941 18073 18075    1
 17942 18073 18076    1
 17943 18076 18077    1
 17944 18076 18078    1
 17945 18076 18079    1
 17946 18079 18080    1
 17947 18079 18081    1
 17948 18079 18082    1
 17949 18082 18083    1
 17950 18082 18084    1
 17951 18082 18085    1
 17952 18085 18086    1
 17953 18085 18087    2
 17954 18087 18088    1
 17955 18087 18089    1
 17956 18089 18090    1
 17957 18089 18091    1
 17958 18089 18092    1
 17959 18092 18093    1
 17960 18092 18094    1
 17961 18092 18095    1
 17962 18095 18096    1
 17963 18095 18097    1
 17964 18095 18098    1
 17965 18098 18099    1
 17966 18098 18100    1
 17967 18098 18101    1
 17968 18101 18102    1
 17969 18101 18103    1
 17970 18101 18104    1
 17971 18104 18105    1
 17972 18104 18106    1
 17973 18104 18107    1
 17974 18107 18108    1
 17975 18107 18109    1
 17976 18107 18110    1
 17977 18110 18111    1
 17978 18110 18112    1
 17979 18110 18113    1
 17980 18114 18115    1
 17981 18114 18116    1
 17982 18114 18117    1
 17983 18117 18118    1
 17984 18117 18119    1
 17985 18117 18120    1
 17986 18120 18121    1
 17987 18120 18122    1
 17988 18120 18123    1
 17989 18123 18124    1
 17990 18123 18125    1
 17991 18123 18126    1
 17992 18126 18127    1
 17993 18126 18128    1
 17994 18126 18129    1
 17995 18129 18130    1
 17996 18129 18131    1
 17997 18129 18132    1
 17998 18132 18133    1
 17999 18132 18134    1
 18000 18132 18135    1
 18001 18135 18136    1
 18002 18135 18137    1
 18003 18135 18138    1
 18004 18138 18139    1
 18005 18138 18140    1
 18006 18138 18141    1
 18007 18141 18142    1
 18008 18141 18143    1
 18009 18141 18144    1
 18010 18144 18145    1
 18011 18144 18146    1
 18012 18144 18147    1
 18013 18147 18148    1
 18014 18147 18149    1
 18015 18147 18150    1
 18016 18150 18151    1
 18017 18150 18152    1
 18018 18150 18153    1
 18019 18153 18154    1
 18020 18153 18155    1
 18021 18153 18156    1
 18022 18157 18158    1
 18023 18157 18161    1
 18024 18157 18165    1
 18025 18157 18169    1
 18026 18158 18159    1
 18027 18158 18160    1
 18028 18158 18173    1
 18029 18161 18162    1
 18030 18161 18163    1
 18031 18161 18164    1
 18032 18165 18166    1
 18033 18165 18167    1
 18034 18165 18168    1
 18035 18169 18170    1
 18036 18169 18171    1
 18037 18169 18172    1
 18038 18173 18174    1
 18039 18173 18175    1
 18040 18173 18179    1
 18041 18176 18177    2
 18042 18176 18178    1
 18043 18176 18179    1
 18044 18176 18180    1
 18045 18180 18181    1
 18046 18181 18182    1
 18047 18181 18183    1
 18048 18181 18184    1
 18049 18184 18185    1
 18050 18184 18186    1
 18051 18184 18192    1
 18052 18186 18187    1
 18053 18187 18188    2
 18054 18187 18189    1
 18055 18189 18190    1
 18056 18189 18191    1
 18057 18189 18201    1
 18058 18192 18193    1
 18059 18192 18194    1
 18060 18192 18195    1
 18061 18195 18196    1
 18062 18196 18197    2
 18063 18196 18198    1
 18064 18198 18199    1
 18065 18198 18200    1
 18066 18198 18248    1
 18067 18201 18202    1
 18068 18201 18203    1
 18069 18201 18204    1
 18070 18204 18205    1
 18071 18204 18206    1
 18072 18204 18207    1
 18073 18207 18208    1
 18074 18207 18209    1
 18075 18207 18210    1
 18076 18210 18211    1
 18077 18210 18212    1
 18078 18210 18213    1
 18079 18213 18214    1
 18080 18213 18215    1
 18081 18213 18216    1
 18082 18216 18217    1
 18083 18216 18218    1
 18084 18216 18219    1
 18085 18219 18220    1
 18086 18219 18221    2
 18087 18221 18222    1
 18088 18221 18223    1
 18089 18223 18224    1
 18090 18223 18225    1
 18091 18223 18226    1
 18092 18226 18227    1
 18093 18226 18228    1
 18094 18226 18229    1
 18095 18229 18230    1
 18096 18229 18231    1
 18097 18229 18232    1
 18098 18232 18233    1
 18099 18232 18234    1
 18100 18232 18235    1
 18101 18235 18236    1
 18102 18235 18237    1
 18103 18235 18238    1
 18104 18238 18239    1
 18105 18238 18240    1
 18106 18238 18241    1
 18107 18241 18242    1
 18108 18241 18243    1
 18109 18241 18244    1
 18110 18244 18245    1
 18111 18244 18246    1
 18112 18244 18247    1
 18113 18248 18249    1
 18114 18248 18250    1
 18115 18248 18251    1
 18116 18251 18252    1
 18117 18251 18253    1
 18118 18251 18254    1
 18119 18254 18255    1
 18120 18254 18256    1
 18121 18254 18257    1
 18122 18257 18258    1
 18123 18257 18259    1
 18124 18257 18260    1
 18125 18260 18261    1
 18126 18260 18262    1
 18127 18260 18263    1
 18128 18263 18264    1
 18129 18263 18265    1
 18130 18263 18266    1
 18131 18266 18267    1
 18132 18266 18268    1
 18133 18266 18269    1
 18134 18269 18270    1
 18135 18269 18271    1
 18136 18269 18272    1
 18137 18272 18273    1
 18138 18272 18274    1
 18139 18272 18275    1
 18140 18275 18276    1
 18141 18275 18277    1
 18142 18275 18278    1
 18143 18278 18279    1
 18144 18278 18280    1
 18145 18278 18281    1
 18146 18281 18282    1
 18147 18281 18283    1
 18148 18281 18284    1
 18149 18284 18285    1
 18150 18284 18286    1
 18151 18284 18287    1
 18152 18287 18288    1
 18153 18287 18289    1
 18154 18287 18290    1
 18155 18291 18292    1
 18156 18291 18295    1
 18157 18291 18299    1
 18158 18291 18303    1
 18159 18292 18293    1
 18160 18292 18294    1
 18161 18292 18307    1
 18162 18295 18296    1
 18163 18295 18297    1
 18164 18295 18298    1
 18165 18299 18300    1
 18166 18299 18301    1
 18167 18299 18302    1
 18168 18303 18304    1
 18169 18303 18305    1
 18170 18303 18306    1
 18171 18307 18308    1
 18172 18307 18309    1
 18173 18307 18313    1
 18174 18310 18311    2
 18175 18310 18312    1
 18176 18310 18313    1
 18177 18310 18314    1
 18178 18314 18315    1
 18179 18315 18316    1
 18180 18315 18317    1
 18181 18315 18318    1
 18182 18318 18319    1
 18183 18318 18320    1
 18184 18318 18326    1
 18185 18320 18321    1
 18186 18321 18322    2
 18187 18321 18323    1
 18188 18323 18324    1
 18189 18323 18325    1
 18190 18323 18335    1
 18191 18326 18327    1
 18192 18326 18328    1
 18193 18326 18329    1
 18194 18329 18330    1
 18195 18330 18331    2
 18196 18330 18332    1
 18197 18332 18333    1
 18198 18332 18334    1
 18199 18332 18382    1
 18200 18335 18336    1
 18201 18335 18337    1
 18202 18335 18338    1
 18203 18338 18339    1
 18204 18338 18340    1
 18205 18338 18341    1
 18206 18341 18342    1
 18207 18341 18343    1
 18208 18341 18344    1
 18209 18344 18345    1
 18210 18344 18346    1
 18211 18344 18347    1
 18212 18347 18348    1
 18213 18347 18349    1
 18214 18347 18350    1
 18215 18350 18351    1
 18216 18350 18352    1
 18217 18350 18353    1
 18218 18353 18354    1
 18219 18353 18355    2
 18220 18355 18356    1
 18221 18355 18357    1
 18222 18357 18358    1
 18223 18357 18359    1
 18224 18357 18360    1
 18225 18360 18361    1
 18226 18360 18362    1
 18227 18360 18363    1
 18228 18363 18364    1
 18229 18363 18365    1
 18230 18363 18366    1
 18231 18366 18367    1
 18232 18366 18368    1
 18233 18366 18369    1
 18234 18369 18370    1
 18235 18369 18371    1
 18236 18369 18372    1
 18237 18372 18373    1
 18238 18372 18374    1
 18239 18372 18375    1
 18240 18375 18376    1
 18241 18375 18377    1
 18242 18375 18378    1
 18243 18378 18379    1
 18244 18378 18380    1
 18245 18378 18381    1
 18246 18382 18383    1
 18247 18382 18384    1
 18248 18382 18385    1
 18249 18385 18386    1
 18250 18385 18387    1
 18251 18385 18388    1
 18252 18388 18389    1
 18253 18388 18390    1
 18254 18388 18391    1
 18255 18391 18392    1
 18256 18391 18393    1
 18257 18391 18394    1
 18258 18394 18395    1
 18259 18394 18396    1
 18260 18394 18397    1
 18261 18397 18398    1
 18262 18397 18399    1
 18263 18397 18400    1
 18264 18400 18401    1
 18265 18400 18402    1
 18266 18400 18403    1
 18267 18403 18404    1
 18268 18403 18405    1
 18269 18403 18406    1
 18270 18406 18407    1
 18271 18406 18408    1
 18272 18406 18409    1
 18273 18409 18410    1
 18274 18409 18411    1
 18275 18409 18412    1
 18276 18412 18413    1
 18277 18412 18414    1
 18278 18412 18415    1
 18279 18415 18416    1
 18280 18415 18417    1
 18281 18415 18418    1
 18282 18418 18419    1
 18283 18418 18420    1
 18284 18418 18421    1
 18285 18421 18422    1
 18286 18421 18423    1
 18287 18421 18424    1
 18288 18425 18426    1
 18289 18425 18429    1
 18290 18425 18433    1
 18291 18425 18437    1
 18292 18426 18427    1
 18293 18426 18428    1
 18294 18426 18441    1
 18295 18429 18430    1
 18296 18429 18431    1
 18297 18429 18432    1
 18298 18433 18434    1
 18299 18433 18435    1
 18300 18433 18436    1
 18301 18437 18438    1
 18302 18437 18439    1
 18303 18437 18440    1
 18304 18441 18442    1
 18305 18441 18443    1
 18306 18441 18447    1
 18307 18444 18445    2
 18308 18444 18446    1
 18309 18444 18447    1
 18310 18444 18448    1
 18311 18448 18449    1
 18312 18449 18450    1
 18313 18449 18451    1
 18314 18449 18452    1
 18315 18452 18453    1
 18316 18452 18454    1
 18317 18452 18460    1
 18318 18454 18455    1
 18319 18455 18456    2
 18320 18455 18457    1
 18321 18457 18458    1
 18322 18457 18459    1
 18323 18457 18469    1
 18324 18460 18461    1
 18325 18460 18462    1
 18326 18460 18463    1
 18327 18463 18464    1
 18328 18464 18465    2
 18329 18464 18466    1
 18330 18466 18467    1
 18331 18466 18468    1
 18332 18466 18516    1
 18333 18469 18470    1
 18334 18469 18471    1
 18335 18469 18472    1
 18336 18472 18473    1
 18337 18472 18474    1
 18338 18472 18475    1
 18339 18475 18476    1
 18340 18475 18477    1
 18341 18475 18478    1
 18342 18478 18479    1
 18343 18478 18480    1
 18344 18478 18481    1
 18345 18481 18482    1
 18346 18481 18483    1
 18347 18481 18484    1
 18348 18484 18485    1
 18349 18484 18486    1
 18350 18484 18487    1
 18351 18487 18488    1
 18352 18487 18489    2
 18353 18489 18490    1
 18354 18489 18491    1
 18355 18491 18492    1
 18356 18491 18493    1
 18357 18491 18494    1
 18358 18494 18495    1
 18359 18494 18496    1
 18360 18494 18497    1
 18361 18497 18498    1
 18362 18497 18499    1
 18363 18497 18500    1
 18364 18500 18501    1
 18365 18500 18502    1
 18366 18500 18503    1
 18367 18503 18504    1
 18368 18503 18505    1
 18369 18503 18506    1
 18370 18506 18507    1
 18371 18506 18508    1
 18372 18506 18509    1
 18373 18509 18510    1
 18374 18509 18511    1
 18375 18509 18512    1
 18376 18512 18513    1
 18377 18512 18514    1
 18378 18512 18515    1
 18379 18516 18517    1
 18380 18516 18518    1
 18381 18516 18519    1
 18382 18519 18520    1
 18383 18519 18521    1
 18384 18519 18522    1
 18385 18522 18523    1
 18386 18522 18524    1
 18387 18522 18525    1
 18388 18525 18526    1
 18389 18525 18527    1
 18390 18525 18528    1
 18391 18528 18529    1
 18392 18528 18530    1
 18393 18528 18531    1
 18394 18531 18532    1
 18395 18531 18533    1
 18396 18531 18534    1
 18397 18534 18535    1
 18398 18534 18536    1
 18399 18534 18537    1
 18400 18537 18538    1
 18401 18537 18539    1
 18402 18537 18540    1
 18403 18540 18541    1
 18404 18540 18542    1
 18405 18540 18543    1
 18406 18543 18544    1
 18407 18543 18545    1
 18408 18543 18546    1
 18409 18546 18547    1
 18410 18546 18548    1
 18411 18546 18549    1
 18412 18549 18550    1
 18413 18549 18551    1
 18414 18549 18552    1
 18415 18552 18553    1
 18416 18552 18554    1
 18417 18552 18555    1
 18418 18555 18556    1
 18419 18555 18557    1
 18420 18555 18558    1
 18421 18559 18560    1
 18422 18559 18563    1
 18423 18559 18567    1
 18424 18559 18571    1
 18425 18560 18561    1
 18426 18560 18562    1
 18427 18560 18575    1
 18428 18563 18564    1
 18429 18563 18565    1
 18430 18563 18566    1
 18431 18567 18568    1
 18432 18567 18569    1
 18433 18567 18570    1
 18434 18571 18572    1
 18435 18571 18573    1
 18436 18571 18574    1
 18437 18575 18576    1
 18438 18575 18577    1
 18439 18575 18581    1
 18440 18578 18579    2
 18441 18578 18580    1
 18442 18578 18581    1
 18443 18578 18582    1
 18444 18582 18583    1
 18445 18583 18584    1
 18446 18583 18585    1
 18447 18583 18586    1
 18448 18586 18587    1
 18449 18586 18588    1
 18450 18586 18594    1
 18451 18588 18589    1
 18452 18589 18590    2
 18453 18589 18591    1
 18454 18591 18592    1
 18455 18591 18593    1
 18456 18591 18603    1
 18457 18594 18595    1
 18458 18594 18596    1
 18459 18594 18597    1
 18460 18597 18598    1
 18461 18598 18599    2
 18462 18598 18600    1
 18463 18600 18601    1
 18464 18600 18602    1
 18465 18600 18650    1
 18466 18603 18604    1
 18467 18603 18605    1
 18468 18603 18606    1
 18469 18606 18607    1
 18470 18606 18608    1
 18471 18606 18609    1
 18472 18609 18610    1
 18473 18609 18611    1
 18474 18609 18612    1
 18475 18612 18613    1
 18476 18612 18614    1
 18477 18612 18615    1
 18478 18615 18616    1
 18479 18615 18617    1
 18480 18615 18618    1
 18481 18618 18619    1
 18482 18618 18620    1
 18483 18618 18621    1
 18484 18621 18622    1
 18485 18621 18623    2
 18486 18623 18624    1
 18487 18623 18625    1
 18488 18625 18626    1
 18489 18625 18627    1
 18490 18625 18628    1
 18491 18628 18629    1
 18492 18628 18630    1
 18493 18628 18631    1
 18494 18631 18632    1
 18495 18631 18633    1
 18496 18631 18634    1
 18497 18634 18635    1
 18498 18634 18636    1
 18499 18634 18637    1
 18500 18637 18638    1
 18501 18637 18639    1
 18502 18637 18640    1
 18503 18640 18641    1
 18504 18640 18642    1
 18505 18640 18643    1
 18506 18643 18644    1
 18507 18643 18645    1
 18508 18643 18646    1
 18509 18646 18647    1
 18510 18646 18648    1
 18511 18646 18649    1
 18512 18650 18651    1
 18513 18650 18652    1
 18514 18650 18653    1
 18515 18653 18654    1
 18516 18653 18655    1
 18517 18653 18656    1
 18518 18656 18657    1
 18519 18656 18658    1
 18520 18656 18659    1
 18521 18659 18660    1
 18522 18659 18661    1
 18523 18659 18662    1
 18524 18662 18663    1
 18525 18662 18664    1
 18526 18662 18665    1
 18527 18665 18666    1
 18528 18665 18667    1
 18529 18665 18668    1
 18530 18668 18669    1
 18531 18668 18670    1
 18532 18668 18671    1
 18533 18671 18672    1
 18534 18671 18673    1
 18535 18671 18674    1
 18536 18674 18675    1
 18537 18674 18676    1
 18538 18674 18677    1
 18539 18677 18678    1
 18540 18677 18679    1
 18541 18677 18680    1
 18542 18680 18681    1
 18543 18680 18682    1
 18544 18680 18683    1
 18545 18683 18684    1
 18546 18683 18685    1
 18547 18683 18686    1
 18548 18686 18687    1
 18549 18686 18688    1
 18550 18686 18689    1
 18551 18689 18690    1
 18552 18689 18691    1
 18553 18689 18692    1
 18554 18693 18694    1
 18555 18693 18697    1
 18556 18693 18701    1
 18557 18693 18705    1
 18558 18694 18695    1
 18559 18694 18696    1
 18560 18694 18709    1
 18561 18697 18698    1
 18562 18697 18699    1
 18563 18697 18700    1
 18564 18701 18702    1
 18565 18701 18703    1
 18566 18701 18704    1
 18567 18705 18706    1
 18568 18705 18707    1
 18569 18705 18708    1
 18570 18709 18710    1
 18571 18709 18711    1
 18572 18709 18715    1
 18573 18712 18713    2
 18574 18712 18714    1
 18575 18712 18715    1
 18576 18712 18716    1
 18577 18716 18717    1
 18578 18717 18718    1
 18579 18717 18719    1
 18580 18717 18720    1
 18581 18720 18721    1
 18582 18720 18722    1
 18583 18720 18728    1
 18584 18722 18723    1
 18585 18723 18724    2
 18586 18723 18725    1
 18587 18725 18726    1
 18588 18725 18727    1
 18589 18725 18737    1
 18590 18728 18729    1
 18591 18728 18730    1
 18592 18728 18731    1
 18593 18731 18732    1
 18594 18732 18733    2
 18595 18732 18734    1
 18596 18734 18735    1
 18597 18734 18736    1
 18598 18734 18784    1
 18599 18737 18738    1
 18600 18737 18739    1
 18601 18737 18740    1
 18602 18740 18741    1
 18603 18740 18742    1
 18604 18740 18743    1
 18605 18743 18744    1
 18606 18743 18745    1
 18607 18743 18746    1
 18608 18746 18747    1
 18609 18746 18748    1
 18610 18746 18749    1
 18611 18749 18750    1
 18612 18749 18751    1
 18613 18749 18752    1
 18614 18752 18753    1
 18615 18752 18754    1
 18616 18752 18755    1
 18617 18755 18756    1
 18618 18755 18757    2
 18619 18757 18758    1
 18620 18757 18759    1
 18621 18759 18760    1
 18622 18759 18761    1
 18623 18759 18762    1
 18624 18762 18763    1
 18625 18762 18764    1
 18626 18762 18765    1
 18627 18765 18766    1
 18628 18765 18767    1
 18629 18765 18768    1
 18630 18768 18769    1
 18631 18768 18770    1
 18632 18768 18771    1
 18633 18771 18772    1
 18634 18771 18773    1
 18635 18771 18774    1
 18636 18774 18775    1
 18637 18774 18776    1
 18638 18774 18777    1
 18639 18777 18778    1
 18640 18777 18779    1
 18641 18777 18780    1
 18642 18780 18781    1
 18643 18780 18782    1
 18644 18780 18783    1
 18645 18784 18785    1
 18646 18784 18786    1
 18647 18784 18787    1
 18648 18787 18788    1
 18649 18787 18789    1
 18650 18787 18790    1
 18651 18790 18791    1
 18652 18790 18792    1
 18653 18790 18793    1
 18654 18793 18794    1
 18655 18793 18795    1
 18656 18793 18796    1
 18657 18796 18797    1
 18658 18796 18798    1
 18659 18796 18799    1
 18660 18799 18800    1
 18661 18799 18801    1
 18662 18799 18802    1
 18663 18802 18803    1
 18664 18802 18804    1
 18665 18802 18805    1
 18666 18805 18806    1
 18667 18805 18807    1
 18668 18805 18808    1
 18669 18808 18809    1
 18670 18808 18810    1
 18671 18808 18811    1
 18672 18811 18812    1
 18673 18811 18813    1
 18674 18811 18814    1
 18675 18814 18815    1
 18676 18814 18816    1
 18677 18814 18817    1
 18678 18817 18818    1
 18679 18817 18819    1
 18680 18817 18820    1
 18681 18820 18821    1
 18682 18820 18822    1
 18683 18820 18823    1
 18684 18823 18824    1
 18685 18823 18825    1
 18686 18823 18826    1
 18687 18827 18828    1
 18688 18827 18831    1
 18689 18827 18835    1
 18690 18827 18839    1
 18691 18828 18829    1
 18692 18828 18830    1
 18693 18828 18843    1
 18694 18831 18832    1
 18695 18831 18833    1
 18696 18831 18834    1
 18697 18835 18836    1
 18698 18835 18837    1
 18699 18835 18838    1
 18700 18839 18840    1
 18701 18839 18841    1
 18702 18839 18842    1
 18703 18843 18844    1
 18704 18843 18845    1
 18705 18843 18849    1
 18706 18846 18847    2
 18707 18846 18848    1
 18708 18846 18849    1
 18709 18846 18850    1
 18710 18850 18851    1
 18711 18851 18852    1
 18712 18851 18853    1
 18713 18851 18854    1
 18714 18854 18855    1
 18715 18854 18856    1
 18716 18854 18862    1
 18717 18856 18857    1
 18718 18857 18858    2
 18719 18857 18859    1
 18720 18859 18860    1
 18721 18859 18861    1
 18722 18859 18871    1
 18723 18862 18863    1
 18724 18862 18864    1
 18725 18862 18865    1
 18726 18865 18866    1
 18727 18866 18867    2
 18728 18866 18868    1
 18729 18868 18869    1
 18730 18868 18870    1
 18731 18868 18918    1
 18732 18871 18872    1
 18733 18871 18873    1
 18734 18871 18874    1
 18735 18874 18875    1
 18736 18874 18876    1
 18737 18874 18877    1
 18738 18877 18878    1
 18739 18877 18879    1
 18740 18877 18880    1
 18741 18880 18881    1
 18742 18880 18882    1
 18743 18880 18883    1
 18744 18883 18884    1
 18745 18883 18885    1
 18746 18883 18886    1
 18747 18886 18887    1
 18748 18886 18888    1
 18749 18886 18889    1
 18750 18889 18890    1
 18751 18889 18891    2
 18752 18891 18892    1
 18753 18891 18893    1
 18754 18893 18894    1
 18755 18893 18895    1
 18756 18893 18896    1
 18757 18896 18897    1
 18758 18896 18898    1
 18759 18896 18899    1
 18760 18899 18900    1
 18761 18899 18901    1
 18762 18899 18902    1
 18763 18902 18903    1
 18764 18902 18904    1
 18765 18902 18905    1
 18766 18905 18906    1
 18767 18905 18907    1
 18768 18905 18908    1
 18769 18908 18909    1
 18770 18908 18910    1
 18771 18908 18911    1
 18772 18911 18912    1
 18773 18911 18913    1
 18774 18911 18914    1
 18775 18914 18915    1
 18776 18914 18916    1
 18777 18914 18917    1
 18778 18918 18919    1
 18779 18918 18920    1
 18780 18918 18921    1
 18781 18921 18922    1
 18782 18921 18923    1
 18783 18921 18924    1
 18784 18924 18925    1
 18785 18924 18926    1
 18786 18924 18927    1
 18787 18927 18928    1
 18788 18927 18929    1
 18789 18927 18930    1
 18790 18930 18931    1
 18791 18930 18932    1
 18792 18930 18933    1
 18793 18933 18934    1
 18794 18933 18935    1
 18795 18933 18936    1
 18796 18936 18937    1
 18797 18936 18938    1
 18798 18936 18939    1
 18799 18939 18940    1
 18800 18939 18941    1
 18801 18939 18942    1
 18802 18942 18943    1
 18803 18942 18944    1
 18804 18942 18945    1
 18805 18945 18946    1
 18806 18945 18947    1
 18807 18945 18948    1
 18808 18948 18949    1
 18809 18948 18950    1
 18810 18948 18951    1
 18811 18951 18952    1
 18812 18951 18953    1
 18813 18951 18954    1
 18814 18954 18955    1
 18815 18954 18956    1
 18816 18954 18957    1
 18817 18957 18958    1
 18818 18957 18959    1
 18819 18957 18960    1
 18820 18961 18962    1
 18821 18961 18965    1
 18822 18961 18969    1
 18823 18961 18973    1
 18824 18962 18963    1
 18825 18962 18964    1
 18826 18962 18977    1
 18827 18965 18966    1
 18828 18965 18967    1
 18829 18965 18968    1
 18830 18969 18970    1
 18831 18969 18971    1
 18832 18969 18972    1
 18833 18973 18974    1
 18834 18973 18975    1
 18835 18973 18976    1
 18836 18977 18978    1
 18837 18977 18979    1
 18838 18977 18983    1
 18839 18980 18981    2
 18840 18980 18982    1
 18841 18980 18983    1
 18842 18980 18984    1
 18843 18984 18985    1
 18844 18985 18986    1
 18845 18985 18987    1
 18846 18985 18988    1
 18847 18988 18989    1
 18848 18988 18990    1
 18849 18988 18996    1
 18850 18990 18991    1
 18851 18991 18992    2
 18852 18991 18993    1
 18853 18993 18994    1
 18854 18993 18995    1
 18855 18993 19005    1
 18856 18996 18997    1
 18857 18996 18998    1
 18858 18996 18999    1
 18859 18999 19000    1
 18860 19000 19001    2
 18861 19000 19002    1
 18862 19002 19003    1
 18863 19002 19004    1
 18864 19002 19052    1
 18865 19005 19006    1
 18866 19005 19007    1
 18867 19005 19008    1
 18868 19008 19009    1
 18869 19008 19010    1
 18870 19008 19011    1
 18871 19011 19012    1
 18872 19011 19013    1
 18873 19011 19014    1
 18874 19014 19015    1
 18875 19014 19016    1
 18876 19014 19017    1
 18877 19017 19018    1
 18878 19017 19019    1
 18879 19017 19020    1
 18880 19020 19021    1
 18881 19020 19022    1
 18882 19020 19023    1
 18883 19023 19024    1
 18884 19023 19025    2
 18885 19025 19026    1
 18886 19025 19027    1
 18887 19027 19028    1
 18888 19027 19029    1
 18889 19027 19030    1
 18890 19030 19031    1
 18891 19030 19032    1
 18892 19030 19033    1
 18893 19033 19034    1
 18894 19033 19035    1
 18895 19033 19036    1
 18896 19036 19037    1
 18897 19036 19038    1
 18898 19036 19039    1
 18899 19039 19040    1
 18900 19039 19041    1
 18901 19039 19042    1
 18902 19042 19043    1
 18903 19042 19044    1
 18904 19042 19045    1
 18905 19045 19046    1
 18906 19045 19047    1
 18907 19045 19048    1
 18908 19048 19049    1
 18909 19048 19050    1
 18910 19048 19051    1
 18911 19052 19053    1
 18912 19052 19054    1
 18913 19052 19055    1
 18914 19055 19056    1
 18915 19055 19057    1
 18916 19055 19058    1
 18917 19058 19059    1
 18918 19058 19060    1
 18919 19058 19061    1
 18920 19061 19062    1
 18921 19061 19063    1
 18922 19061 19064    1
 18923 19064 19065    1
 18924 19064 19066    1
 18925 19064 19067    1
 18926 19067 19068    1
 18927 19067 19069    1
 18928 19067 19070    1
 18929 19070 19071    1
 18930 19070 19072    1
 18931 19070 19073    1
 18932 19073 19074    1
 18933 19073 19075    1
 18934 19073 19076    1
 18935 19076 19077    1
 18936 19076 19078    1
 18937 19076 19079    1
 18938 19079 19080    1
 18939 19079 19081    1
 18940 19079 19082    1
 18941 19082 19083    1
 18942 19082 19084    1
 18943 19082 19085    1
 18944 19085 19086    1
 18945 19085 19087    1
 18946 19085 19088    1
 18947 19088 19089    1
 18948 19088 19090    1
 18949 19088 19091    1
 18950 19091 19092    1
 18951 19091 19093    1
 18952 19091 19094    1
 18953 19095 19096    1
 18954 19095 19099    1
 18955 19095 19103    1
 18956 19095 19107    1
 18957 19096 19097    1
 18958 19096 19098    1
 18959 19096 19111    1
 18960 19099 19100    1
 18961 19099 19101    1
 18962 19099 19102    1
 18963 19103 19104    1
 18964 19103 19105    1
 18965 19103 19106    1
 18966 19107 19108    1
 18967 19107 19109    1
 18968 19107 19110    1
 18969 19111 19112    1
 18970 19111 19113    1
 18971 19111 19117    1
 18972 19114 19115    2
 18973 19114 19116    1
 18974 19114 19117    1
 18975 19114 19118    1
 18976 19118 19119    1
 18977 19119 19120    1
 18978 19119 19121    1
 18979 19119 19122    1
 18980 19122 19123    1
 18981 19122 19124    1
 18982 19122 19130    1
 18983 19124 19125    1
 18984 19125 19126    2
 18985 19125 19127    1
 18986 19127 19128    1
 18987 19127 19129    1
 18988 19127 19139    1
 18989 19130 19131    1
 18990 19130 19132    1
 18991 19130 19133    1
 18992 19133 19134    1
 18993 19134 19135    2
 18994 19134 19136    1
 18995 19136 19137    1
 18996 19136 19138    1
 18997 19136 19186    1
 18998 19139 19140    1
 18999 19139 19141    1
 19000 19139 19142    1
 19001 19142 19143    1
 19002 19142 19144    1
 19003 19142 19145    1
 19004 19145 19146    1
 19005 19145 19147    1
 19006 19145 19148    1
 19007 19148 19149    1
 19008 19148 19150    1
 19009 19148 19151    1
 19010 19151 19152    1
 19011 19151 19153    1
 19012 19151 19154    1
 19013 19154 19155    1
 19014 19154 19156    1
 19015 19154 19157    1
 19016 19157 19158    1
 19017 19157 19159    2
 19018 19159 19160    1
 19019 19159 19161    1
 19020 19161 19162    1
 19021 19161 19163    1
 19022 19161 19164    1
 19023 19164 19165    1
 19024 19164 19166    1
 19025 19164 19167    1
 19026 19167 19168    1
 19027 19167 19169    1
 19028 19167 19170    1
 19029 19170 19171    1
 19030 19170 19172    1
 19031 19170 19173    1
 19032 19173 19174    1
 19033 19173 19175    1
 19034 19173 19176    1
 19035 19176 19177    1
 19036 19176 19178    1
 19037 19176 19179    1
 19038 19179 19180    1
 19039 19179 19181    1
 19040 19179 19182    1
 19041 19182 19183    1
 19042 19182 19184    1
 19043 19182 19185    1
 19044 19186 19187    1
 19045 19186 19188    1
 19046 19186 19189    1
 19047 19189 19190    1
 19048 19189 19191    1
 19049 19189 19192    1
 19050 19192 19193    1
 19051 19192 19194    1
 19052 19192 19195    1
 19053 19195 19196    1
 19054 19195 19197    1
 19055 19195 19198    1
 19056 19198 19199    1
 19057 19198 19200    1
 19058 19198 19201    1
 19059 19201 19202    1
 19060 19201 19203    1
 19061 19201 19204    1
 19062 19204 19205    1
 19063 19204 19206    1
 19064 19204 19207    1
 19065 19207 19208    1
 19066 19207 19209    1
 19067 19207 19210    1
 19068 19210 19211    1
 19069 19210 19212    1
 19070 19210 19213    1
 19071 19213 19214    1
 19072 19213 19215    1
 19073 19213 19216    1
 19074 19216 19217    1
 19075 19216 19218    1
 19076 19216 19219    1
 19077 19219 19220    1
 19078 19219 19221    1
 19079 19219 19222    1
 19080 19222 19223    1
 19081 19222 19224    1
 19082 19222 19225    1
 19083 19225 19226    1
 19084 19225 19227    1
 19085 19225 19228    1
 19086 19229 19230    1
 19087 19229 19233    1
 19088 19229 19237    1
 19089 19229 19241    1
 19090 19230 19231    1
 19091 19230 19232    1
 19092 19230 19245    1
 19093 19233 19234    1
 19094 19233 19235    1
 19095 19233 19236    1
 19096 19237 19238    1
 19097 19237 19239    1
 19098 19237 19240    1
 19099 19241 19242    1
 19100 19241 19243    1
 19101 19241 19244    1
 19102 19245 19246    1
 19103 19245 19247    1
 19104 19245 19251    1
 19105 19248 19249    2
 19106 19248 19250    1
 19107 19248 19251    1
 19108 19248 19252    1
 19109 19252 19253    1
 19110 19253 19254    1
 19111 19253 19255    1
 19112 19253 19256    1
 19113 19256 19257    1
 19114 19256 19258    1
 19115 19256 19264    1
 19116 19258 19259    1
 19117 19259 19260    2
 19118 19259 19261    1
 19119 19261 19262    1
 19120 19261 19263    1
 19121 19261 19273    1
 19122 19264 19265    1
 19123 19264 19266    1
 19124 19264 19267    1
 19125 19267 19268    1
 19126 19268 19269    2
 19127 19268 19270    1
 19128 19270 19271    1
 19129 19270 19272    1
 19130 19270 19320    1
 19131 19273 19274    1
 19132 19273 19275    1
 19133 19273 19276    1
 19134 19276 19277    1
 19135 19276 19278    1
 19136 19276 19279    1
 19137 19279 19280    1
 19138 19279 19281    1
 19139 19279 19282    1
 19140 19282 19283    1
 19141 19282 19284    1
 19142 19282 19285    1
 19143 19285 19286    1
 19144 19285 19287    1
 19145 19285 19288    1
 19146 19288 19289    1
 19147 19288 19290    1
 19148 19288 19291    1
 19149 19291 19292    1
 19150 19291 19293    2
 19151 19293 19294    1
 19152 19293 19295    1
 19153 19295 19296    1
 19154 19295 19297    1
 19155 19295 19298    1
 19156 19298 19299    1
 19157 19298 19300    1
 19158 19298 19301    1
 19159 19301 19302    1
 19160 19301 19303    1
 19161 19301 19304    1
 19162 19304 19305    1
 19163 19304 19306    1
 19164 19304 19307    1
 19165 19307 19308    1
 19166 19307 19309    1
 19167 19307 19310    1
 19168 19310 19311    1
 19169 19310 19312    1
 19170 19310 19313    1
 19171 19313 19314    1
 19172 19313 19315    1
 19173 19313 19316    1
 19174 19316 19317    1
 19175 19316 19318    1
 19176 19316 19319    1
 19177 19320 19321    1
 19178 19320 19322    1
 19179 19320 19323    1
 19180 19323 19324    1
 19181 19323 19325    1
 19182 19323 19326    1
 19183 19326 19327    1
 19184 19326 19328    1
 19185 19326 19329    1
 19186 19329 19330    1
 19187 19329 19331    1
 19188 19329 19332    1
 19189 19332 19333    1
 19190 19332 19334    1
 19191 19332 19335    1
 19192 19335 19336    1
 19193 19335 19337    1
 19194 19335 19338    1
 19195 19338 19339    1
 19196 19338 19340    1
 19197 19338 19341    1
 19198 19341 19342    1
 19199 19341 19343    1
 19200 19341 19344    1
 19201 19344 19345    1
 19202 19344 19346    1
 19203 19344 19347    1
 19204 19347 19348    1
 19205 19347 19349    1
 19206 19347 19350    1
 19207 19350 19351    1
 19208 19350 19352    1
 19209 19350 19353    1
 19210 19353 19354    1
 19211 19353 19355    1
 19212 19353 19356    1
 19213 19356 19357    1
 19214 19356 19358    1
 19215 19356 19359    1
 19216 19359 19360    1
 19217 19359 19361    1
 19218 19359 19362    1
 19219 19363 19364    1
 19220 19363 19365    1
 19221 19366 19367    1
 19222 19366 19368    1
 19223 19369 19370    1
 19224 19369 19371    1
 19225 19372 19373    1
 19226 19372 19374    1
 19227 19375 19376    1
 19228 19375 19377    1
 19229 19378 19379    1
 19230 19378 19380    1
 19231 19381 19382    1
 19232 19381 19383    1
 19233 19384 19385    1
 19234 19384 19386    1
 19235 19387 19388    1
 19236 19387 19389    1
 19237 19390 19391    1
 19238 19390 19392    1
 19239 19393 19394    1
 19240 19393 19395    1
 19241 19396 19397    1
 19242 19396 19398    1
 19243 19399 19400    1
 19244 19399 19401    1
 19245 19402 19403    1
 19246 19402 19404    1
 19247 19405 19406    1
 19248 19405 19407    1
 19249 19408 19409    1
 19250 19408 19410    1
 19251 19411 19412    1
 19252 19411 19413    1
 19253 19414 19415    1
 19254 19414 19416    1
 19255 19417 19418    1
 19256 19417 19419    1
 19257 19420 19421    1
 19258 19420 19422    1
 19259 19423 19424    1
 19260 19423 19425    1
 19261 19426 19427    1
 19262 19426 19428    1
 19263 19429 19430    1
 19264 19429 19431    1
 19265 19432 19433    1
 19266 19432 19434    1
 19267 19435 19436    1
 19268 19435 19437    1
 19269 19438 19439    1
 19270 19438 19440    1
 19271 19441 19442    1
 19272 19441 19443    1
 19273 19444 19445    1
 19274 19444 19446    1
 19275 19447 19448    1
 19276 19447 19449    1
 19277 19450 19451    1
 19278 19450 19452    1
 19279 19453 19454    1
 19280 19453 19455    1
 19281 19456 19457    1
 19282 19456 19458    1
 19283 19459 19460    1
 19284 19459 19461    1
 19285 19462 19463    1
 19286 19462 19464    1
 19287 19465 19466    1
 19288 19465 19467    1
 19289 19468 19469    1
 19290 19468 19470    1
 19291 19471 19472    1
 19292 19471 19473    1
 19293 19474 19475    1
 19294 19474 19476    1
 19295 19477 19478    1
 19296 19477 19479    1
 19297 19480 19481    1
 19298 19480 19482    1
 19299 19483 19484    1
 19300 19483 19485    1
 19301 19486 19487    1
 19302 19486 19488    1
 19303 19489 19490    1
 19304 19489 19491    1
 19305 19492 19493    1
 19306 19492 19494    1
 19307 19495 19496    1
 19308 19495 19497    1
 19309 19498 19499    1
 19310 19498 19500    1
 19311 19501 19502    1
 19312 19501 19503    1
 19313 19504 19505    1
 19314 19504 19506    1
 19315 19507 19508    1
 19316 19507 19509    1
 19317 19510 19511    1
 19318 19510 19512    1
 19319 19513 19514    1
 19320 19513 19515    1
 19321 19516 19517    1
 19322 19516 19518    1
 19323 19519 19520    1
 19324 19519 19521    1
 19325 19522 19523    1
 19326 19522 19524    1
 19327 19525 19526    1
 19328 19525 19527    1
 19329 19528 19529    1
 19330 19528 19530    1
 19331 19531 19532    1
 19332 19531 19533    1
 19333 19534 19535    1
 19334 19534 19536    1
 19335 19537 19538    1
 19336 19537 19539    1
 19337 19540 19541    1
 19338 19540 19542    1
 19339 19543 19544    1
 19340 19543 19545    1
 19341 19546 19547    1
 19342 19546 19548    1
 19343 19549 19550    1
 19344 19549 19551    1
 19345 19552 19553    1
 19346 19552 19554    1
 19347 19555 19556    1
 19348 19555 19557    1
 19349 19558 19559    1
 19350 19558 19560    1
 19351 19561 19562    1
 19352 19561 19563    1
 19353 19564 19565    1
 19354 19564 19566    1
 19355 19567 19568    1
 19356 19567 19569    1
 19357 19570 19571    1
 19358 19570 19572    1
 19359 19573 19574    1
 19360 19573 19575    1
 19361 19576 19577    1
 19362 19576 19578    1
 19363 19579 19580    1
 19364 19579 19581    1
 19365 19582 19583    1
 19366 19582 19584    1
 19367 19585 19586    1
 19368 19585 19587    1
 19369 19588 19589    1
 19370 19588 19590    1
 19371 19591 19592    1
 19372 19591 19593    1
 19373 19594 19595    1
 19374 19594 19596    1
 19375 19597 19598    1
 19376 19597 19599    1
 19377 19600 19601    1
 19378 19600 19602    1
 19379 19603 19604    1
 19380 19603 19605    1
 19381 19606 19607    1
 19382 19606 19608    1
 19383 19609 19610    1
 19384 19609 19611    1
 19385 19612 19613    1
 19386 19612 19614    1
 19387 19615 19616    1
 19388 19615 19617    1
 19389 19618 19619    1
 19390 19618 19620    1
 19391 19621 19622    1
 19392 19621 19623    1
 19393 19624 19625    1
 19394 19624 19626    1
 19395 19627 19628    1
 19396 19627 19629    1
 19397 19630 19631    1
 19398 19630 19632    1
 19399 19633 19634    1
 19400 19633 19635    1
 19401 19636 19637    1
 19402 19636 19638    1
 19403 19639 19640    1
 19404 19639 19641    1
 19405 19642 19643    1
 19406 19642 19644    1
 19407 19645 19646    1
 19408 19645 19647    1
 19409 19648 19649    1
 19410 19648 19650    1
 19411 19651 19652    1
 19412 19651 19653    1
 19413 19654 19655    1
 19414 19654 19656    1
 19415 19657 19658    1
 19416 19657 19659    1
 19417 19660 19661    1
 19418 19660 19662    1
 19419 19663 19664    1
 19420 19663 19665    1
 19421 19666 19667    1
 19422 19666 19668    1
 19423 19669 19670    1
 19424 19669 19671    1
 19425 19672 19673    1
 19426 19672 19674    1
 19427 19675 19676    1
 19428 19675 19677    1
 19429 19678 19679    1
 19430 19678 19680    1
 19431 19681 19682    1
 19432 19681 19683    1
 19433 19684 19685    1
 19434 19684 19686    1
 19435 19687 19688    1
 19436 19687 19689    1
 19437 19690 19691    1
 19438 19690 19692    1
 19439 19693 19694    1
 19440 19693 19695    1
 19441 19696 19697    1
 19442 19696 19698    1
 19443 19699 19700    1
 19444 19699 19701    1
 19445 19702 19703    1
 19446 19702 19704    1
 19447 19705 19706    1
 19448 19705 19707    1
 19449 19708 19709    1
 19450 19708 19710    1
 19451 19711 19712    1
 19452 19711 19713    1
 19453 19714 19715    1
 19454 19714 19716    1
 19455 19717 19718    1
 19456 19717 19719    1
 19457 19720 19721    1
 19458 19720 19722    1
 19459 19723 19724    1
 19460 19723 19725    1
 19461 19726 19727    1
 19462 19726 19728    1
 19463 19729 19730    1
 19464 19729 19731    1
 19465 19732 19733    1
 19466 19732 19734    1
 19467 19735 19736    1
 19468 19735 19737    1
 19469 19738 19739    1
 19470 19738 19740    1
 19471 19741 19742    1
 19472 19741 19743    1
 19473 19744 19745    1
 19474 19744 19746    1
 19475 19747 19748    1
 19476 19747 19749    1
 19477 19750 19751    1
 19478 19750 19752    1
 19479 19753 19754    1
 19480 19753 19755    1
 19481 19756 19757    1
 19482 19756 19758    1
 19483 19759 19760    1
 19484 19759 19761    1
 19485 19762 19763    1
 19486 19762 19764    1
 19487 19765 19766    1
 19488 19765 19767    1
 19489 19768 19769    1
 19490 19768 19770    1
 19491 19771 19772    1
 19492 19771 19773    1
 19493 19774 19775    1
 19494 19774 19776    1
 19495 19777 19778    1
 19496 19777 19779    1
 19497 19780 19781    1
 19498 19780 19782    1
 19499 19783 19784    1
 19500 19783 19785    1
 19501 19786 19787    1
 19502 19786 19788    1
 19503 19789 19790    1
 19504 19789 19791    1
 19505 19792 19793    1
 19506 19792 19794    1
 19507 19795 19796    1
 19508 19795 19797    1
 19509 19798 19799    1
 19510 19798 19800    1
 19511 19801 19802    1
 19512 19801 19803    1
 19513 19804 19805    1
 19514 19804 19806    1
 19515 19807 19808    1
 19516 19807 19809    1
 19517 19810 19811    1
 19518 19810 19812    1
 19519 19813 19814    1
 19520 19813 19815    1
 19521 19816 19817    1
 19522 19816 19818    1
 19523 19819 19820    1
 19524 19819 19821    1
 19525 19822 19823    1
 19526 19822 19824    1
 19527 19825 19826    1
 19528 19825 19827    1
 19529 19828 19829    1
 19530 19828 19830    1
 19531 19831 19832    1
 19532 19831 19833    1
 19533 19834 19835    1
 19534 19834 19836    1
 19535 19837 19838    1
 19536 19837 19839    1
 19537 19840 19841    1
 19538 19840 19842    1
 19539 19843 19844    1
 19540 19843 19845    1
 19541 19846 19847    1
 19542 19846 19848    1
 19543 19849 19850    1
 19544 19849 19851    1
 19545 19852 19853    1
 19546 19852 19854    1
 19547 19855 19856    1
 19548 19855 19857    1
 19549 19858 19859    1
 19550 19858 19860    1
 19551 19861 19862    1
 19552 19861 19863    1
 19553 19864 19865    1
 19554 19864 19866    1
 19555 19867 19868    1
 19556 19867 19869    1
 19557 19870 19871    1
 19558 19870 19872    1
 19559 19873 19874    1
 19560 19873 19875    1
 19561 19876 19877    1
 19562 19876 19878    1
 19563 19879 19880    1
 19564 19879 19881    1
 19565 19882 19883    1
 19566 19882 19884    1
 19567 19885 19886    1
 19568 19885 19887    1
 19569 19888 19889    1
 19570 19888 19890    1
 19571 19891 19892    1
 19572 19891 19893    1
 19573 19894 19895    1
 19574 19894 19896    1
 19575 19897 19898    1
 19576 19897 19899    1
 19577 19900 19901    1
 19578 19900 19902    1
 19579 19903 19904    1
 19580 19903 19905    1
 19581 19906 19907    1
 19582 19906 19908    1
 19583 19909 19910    1
 19584 19909 19911    1
 19585 19912 19913    1
 19586 19912 19914    1
 19587 19915 19916    1
 19588 19915 19917    1
 19589 19918 19919    1
 19590 19918 19920    1
 19591 19921 19922    1
 19592 19921 19923    1
 19593 19924 19925    1
 19594 19924 19926    1
 19595 19927 19928    1
 19596 19927 19929    1
 19597 19930 19931    1
 19598 19930 19932    1
 19599 19933 19934    1
 19600 19933 19935    1
 19601 19936 19937    1
 19602 19936 19938    1
 19603 19939 19940    1
 19604 19939 19941    1
 19605 19942 19943    1
 19606 19942 19944    1
 19607 19945 19946    1
 19608 19945 19947    1
 19609 19948 19949    1
 19610 19948 19950    1
 19611 19951 19952    1
 19612 19951 19953    1
 19613 19954 19955    1
 19614 19954 19956    1
 19615 19957 19958    1
 19616 19957 19959    1
 19617 19960 19961    1
 19618 19960 19962    1
 19619 19963 19964    1
 19620 19963 19965    1
 19621 19966 19967    1
 19622 19966 19968    1
 19623 19969 19970    1
 19624 19969 19971    1
 19625 19972 19973    1
 19626 19972 19974    1
 19627 19975 19976    1
 19628 19975 19977    1
 19629 19978 19979    1
 19630 19978 19980    1
 19631 19981 19982    1
 19632 19981 19983    1
 19633 19984 19985    1
 19634 19984 19986    1
 19635 19987 19988    1
 19636 19987 19989    1
 19637 19990 19991    1
 19638 19990 19992    1
 19639 19993 19994    1
 19640 19993 19995    1
 19641 19996 19997    1
 19642 19996 19998    1
 19643 19999 20000    1
 19644 19999 20001    1
 19645 20002 20003    1
 19646 20002 20004    1
 19647 20005 20006    1
 19648 20005 20007    1
 19649 20008 20009    1
 19650 20008 20010    1
 19651 20011 20012    1
 19652 20011 20013    1
 19653 20014 20015    1
 19654 20014 20016    1
 19655 20017 20018    1
 19656 20017 20019    1
 19657 20020 20021    1
 19658 20020 20022    1
 19659 20023 20024    1
 19660 20023 20025    1
 19661 20026 20027    1
 19662 20026 20028    1
 19663 20029 20030    1
 19664 20029 20031    1
 19665 20032 20033    1
 19666 20032 20034    1
 19667 20035 20036    1
 19668 20035 20037    1
 19669 20038 20039    1
 19670 20038 20040    1
 19671 20041 20042    1
 19672 20041 20043    1
 19673 20044 20045    1
 19674 20044 20046    1
 19675 20047 20048    1
 19676 20047 20049    1
 19677 20050 20051    1
 19678 20050 20052    1
 19679 20053 20054    1
 19680 20053 20055    1
 19681 20056 20057    1
 19682 20056 20058    1
 19683 20059 20060    1
 19684 20059 20061    1
 19685 20062 20063    1
 19686 20062 20064    1
 19687 20065 20066    1
 19688 20065 20067    1
 19689 20068 20069    1
 19690 20068 20070    1
 19691 20071 20072    1
 19692 20071 20073    1
 19693 20074 20075    1
 19694 20074 20076    1
 19695 20077 20078    1
 19696 20077 20079    1
 19697 20080 20081    1
 19698 20080 20082    1
 19699 20083 20084    1
 19700 20083 20085    1
 19701 20086 20087    1
 19702 20086 20088    1
 19703 20089 20090    1
 19704 20089 20091    1
 19705 20092 20093    1
 19706 20092 20094    1
 19707 20095 20096    1
 19708 20095 20097    1
 19709 20098 20099    1
 19710 20098 20100    1
 19711 20101 20102    1
 19712 20101 20103    1
 19713 20104 20105    1
 19714 20104 20106    1
 19715 20107 20108    1
 19716 20107 20109    1
 19717 20110 20111    1
 19718 20110 20112    1
 19719 20113 20114    1
 19720 20113 20115    1
 19721 20116 20117    1
 19722 20116 20118    1
 19723 20119 20120    1
 19724 20119 20121    1
 19725 20122 20123    1
 19726 20122 20124    1
 19727 20125 20126    1
 19728 20125 20127    1
 19729 20128 20129    1
 19730 20128 20130    1
 19731 20131 20132    1
 19732 20131 20133    1
 19733 20134 20135    1
 19734 20134 20136    1
 19735 20137 20138    1
 19736 20137 20139    1
 19737 20140 20141    1
 19738 20140 20142    1
 19739 20143 20144    1
 19740 20143 20145    1
 19741 20146 20147    1
 19742 20146 20148    1
 19743 20149 20150    1
 19744 20149 20151    1
 19745 20152 20153    1
 19746 20152 20154    1
 19747 20155 20156    1
 19748 20155 20157    1
 19749 20158 20159    1
 19750 20158 20160    1
 19751 20161 20162    1
 19752 20161 20163    1
 19753 20164 20165    1
 19754 20164 20166    1
 19755 20167 20168    1
 19756 20167 20169    1
 19757 20170 20171    1
 19758 20170 20172    1
 19759 20173 20174    1
 19760 20173 20175    1
 19761 20176 20177    1
 19762 20176 20178    1
 19763 20179 20180    1
 19764 20179 20181    1
 19765 20182 20183    1
 19766 20182 20184    1
 19767 20185 20186    1
 19768 20185 20187    1
 19769 20188 20189    1
 19770 20188 20190    1
 19771 20191 20192    1
 19772 20191 20193    1
 19773 20194 20195    1
 19774 20194 20196    1
 19775 20197 20198    1
 19776 20197 20199    1
 19777 20200 20201    1
 19778 20200 20202    1
 19779 20203 20204    1
 19780 20203 20205    1
 19781 20206 20207    1
 19782 20206 20208    1
 19783 20209 20210    1
 19784 20209 20211    1
 19785 20212 20213    1
 19786 20212 20214    1
 19787 20215 20216    1
 19788 20215 20217    1
 19789 20218 20219    1
 19790 20218 20220    1
 19791 20221 20222    1
 19792 20221 20223    1
 19793 20224 20225    1
 19794 20224 20226    1
 19795 20227 20228    1
 19796 20227 20229    1
 19797 20230 20231    1
 19798 20230 20232    1
 19799 20233 20234    1
 19800 20233 20235    1
 19801 20236 20237    1
 19802 20236 20238    1
 19803 20239 20240    1
 19804 20239 20241    1
 19805 20242 20243    1
 19806 20242 20244    1
 19807 20245 20246    1
 19808 20245 20247    1
 19809 20248 20249    1
 19810 20248 20250    1
 19811 20251 20252    1
 19812 20251 20253    1
 19813 20254 20255    1
 19814 20254 20256    1
 19815 20257 20258    1
 19816 20257 20259    1
 19817 20260 20261    1
 19818 20260 20262    1
 19819 20263 20264    1
 19820 20263 20265    1
 19821 20266 20267    1
 19822 20266 20268    1
 19823 20269 20270    1
 19824 20269 20271    1
 19825 20272 20273    1
 19826 20272 20274    1
 19827 20275 20276    1
 19828 20275 20277    1
 19829 20278 20279    1
 19830 20278 20280    1
 19831 20281 20282    1
 19832 20281 20283    1
 19833 20284 20285    1
 19834 20284 20286    1
 19835 20287 20288    1
 19836 20287 20289    1
 19837 20290 20291    1
 19838 20290 20292    1
 19839 20293 20294    1
 19840 20293 20295    1
 19841 20296 20297    1
 19842 20296 20298    1
 19843 20299 20300    1
 19844 20299 20301    1
 19845 20302 20303    1
 19846 20302 20304    1
 19847 20305 20306    1
 19848 20305 20307    1
 19849 20308 20309    1
 19850 20308 20310    1
 19851 20311 20312    1
 19852 20311 20313    1
 19853 20314 20315    1
 19854 20314 20316    1
 19855 20317 20318    1
 19856 20317 20319    1
 19857 20320 20321    1
 19858 20320 20322    1
 19859 20323 20324    1
 19860 20323 20325    1
 19861 20326 20327    1
 19862 20326 20328    1
 19863 20329 20330    1
 19864 20329 20331    1
 19865 20332 20333    1
 19866 20332 20334    1
 19867 20335 20336    1
 19868 20335 20337    1
 19869 20338 20339    1
 19870 20338 20340    1
 19871 20341 20342    1
 19872 20341 20343    1
 19873 20344 20345    1
 19874 20344 20346    1
 19875 20347 20348    1
 19876 20347 20349    1
 19877 20350 20351    1
 19878 20350 20352    1
 19879 20353 20354    1
 19880 20353 20355    1
 19881 20356 20357    1
 19882 20356 20358    1
 19883 20359 20360    1
 19884 20359 20361    1
 19885 20362 20363    1
 19886 20362 20364    1
 19887 20365 20366    1
 19888 20365 20367    1
 19889 20368 20369    1
 19890 20368 20370    1
 19891 20371 20372    1
 19892 20371 20373    1
 19893 20374 20375    1
 19894 20374 20376    1
 19895 20377 20378    1
 19896 20377 20379    1
 19897 20380 20381    1
 19898 20380 20382    1
 19899 20383 20384    1
 19900 20383 20385    1
 19901 20386 20387    1
 19902 20386 20388    1
 19903 20389 20390    1
 19904 20389 20391    1
 19905 20392 20393    1
 19906 20392 20394    1
 19907 20395 20396    1
 19908 20395 20397    1
 19909 20398 20399    1
 19910 20398 20400    1
 19911 20401 20402    1
 19912 20401 20403    1
 19913 20404 20405    1
 19914 20404 20406    1
 19915 20407 20408    1
 19916 20407 20409    1
 19917 20410 20411    1
 19918 20410 20412    1
 19919 20413 20414    1
 19920 20413 20415    1
 19921 20416 20417    1
 19922 20416 20418    1
 19923 20419 20420    1
 19924 20419 20421    1
 19925 20422 20423    1
 19926 20422 20424    1
 19927 20425 20426    1
 19928 20425 20427    1
 19929 20428 20429    1
 19930 20428 20430    1
 19931 20431 20432    1
 19932 20431 20433    1
 19933 20434 20435    1
 19934 20434 20436    1
 19935 20437 20438    1
 19936 20437 20439    1
 19937 20440 20441    1
 19938 20440 20442    1
 19939 20443 20444    1
 19940 20443 20445    1
 19941 20446 20447    1
 19942 20446 20448    1
 19943 20449 20450    1
 19944 20449 20451    1
 19945 20452 20453    1
 19946 20452 20454    1
 19947 20455 20456    1
 19948 20455 20457    1
 19949 20458 20459    1
 19950 20458 20460    1
 19951 20461 20462    1
 19952 20461 20463    1
 19953 20464 20465    1
 19954 20464 20466    1
 19955 20467 20468    1
 19956 20467 20469    1
 19957 20470 20471    1
 19958 20470 20472    1
 19959 20473 20474    1
 19960 20473 20475    1
 19961 20476 20477    1
 19962 20476 20478    1
 19963 20479 20480    1
 19964 20479 20481    1
 19965 20482 20483    1
 19966 20482 20484    1
 19967 20485 20486    1
 19968 20485 20487    1
 19969 20488 20489    1
 19970 20488 20490    1
 19971 20491 20492    1
 19972 20491 20493    1
 19973 20494 20495    1
 19974 20494 20496    1
 19975 20497 20498    1
 19976 20497 20499    1
 19977 20500 20501    1
 19978 20500 20502    1
 19979 20503 20504    1
 19980 20503 20505    1
 19981 20506 20507    1
 19982 20506 20508    1
 19983 20509 20510    1
 19984 20509 20511    1
 19985 20512 20513    1
 19986 20512 20514    1
 19987 20515 20516    1
 19988 20515 20517    1
 19989 20518 20519    1
 19990 20518 20520    1
 19991 20521 20522    1
 19992 20521 20523    1
 19993 20524 20525    1
 19994 20524 20526    1
 19995 20527 20528    1
 19996 20527 20529    1
 19997 20530 20531    1
 19998 20530 20532    1
 19999 20533 20534    1
 20000 20533 20535    1
 20001 20536 20537    1
 20002 20536 20538    1
 20003 20539 20540    1
 20004 20539 20541    1
 20005 20542 20543    1
 20006 20542 20544    1
 20007 20545 20546    1
 20008 20545 20547    1
 20009 20548 20549    1
 20010 20548 20550    1
 20011 20551 20552    1
 20012 20551 20553    1
 20013 20554 20555    1
 20014 20554 20556    1
 20015 20557 20558    1
 20016 20557 20559    1
 20017 20560 20561    1
 20018 20560 20562    1
 20019 20563 20564    1
 20020 20563 20565    1
 20021 20566 20567    1
 20022 20566 20568    1
 20023 20569 20570    1
 20024 20569 20571    1
 20025 20572 20573    1
 20026 20572 20574    1
 20027 20575 20576    1
 20028 20575 20577    1
 20029 20578 20579    1
 20030 20578 20580    1
 20031 20581 20582    1
 20032 20581 20583    1
 20033 20584 20585    1
 20034 20584 20586    1
 20035 20587 20588    1
 20036 20587 20589    1
 20037 20590 20591    1
 20038 20590 20592    1
 20039 20593 20594    1
 20040 20593 20595    1
 20041 20596 20597    1
 20042 20596 20598    1
 20043 20599 20600    1
 20044 20599 20601    1
 20045 20602 20603    1
 20046 20602 20604    1
 20047 20605 20606    1
 20048 20605 20607    1
 20049 20608 20609    1
 20050 20608 20610    1
 20051 20611 20612    1
 20052 20611 20613    1
 20053 20614 20615    1
 20054 20614 20616    1
 20055 20617 20618    1
 20056 20617 20619    1
 20057 20620 20621    1
 20058 20620 20622    1
 20059 20623 20624    1
 20060 20623 20625    1
 20061 20626 20627    1
 20062 20626 20628    1
 20063 20629 20630    1
 20064 20629 20631    1
 20065 20632 20633    1
 20066 20632 20634    1
 20067 20635 20636    1
 20068 20635 20637    1
 20069 20638 20639    1
 20070 20638 20640    1
 20071 20641 20642    1
 20072 20641 20643    1
 20073 20644 20645    1
 20074 20644 20646    1
 20075 20647 20648    1
 20076 20647 20649    1
 20077 20650 20651    1
 20078 20650 20652    1
 20079 20653 20654    1
 20080 20653 20655    1
 20081 20656 20657    1
 20082 20656 20658    1
 20083 20659 20660    1
 20084 20659 20661    1
 20085 20662 20663    1
 20086 20662 20664    1
 20087 20665 20666    1
 20088 20665 20667    1
 20089 20668 20669    1
 20090 20668 20670    1
 20091 20671 20672    1
 20092 20671 20673    1
 20093 20674 20675    1
 20094 20674 20676    1
 20095 20677 20678    1
 20096 20677 20679    1
 20097 20680 20681    1
 20098 20680 20682    1
 20099 20683 20684    1
 20100 20683 20685    1
 20101 20686 20687    1
 20102 20686 20688    1
 20103 20689 20690    1
 20104 20689 20691    1
 20105 20692 20693    1
 20106 20692 20694    1
 20107 20695 20696    1
 20108 20695 20697    1
 20109 20698 20699    1
 20110 20698 20700    1
 20111 20701 20702    1
 20112 20701 20703    1
 20113 20704 20705    1
 20114 20704 20706    1
 20115 20707 20708    1
 20116 20707 20709    1
 20117 20710 20711    1
 20118 20710 20712    1
 20119 20713 20714    1
 20120 20713 20715    1
 20121 20716 20717    1
 20122 20716 20718    1
 20123 20719 20720    1
 20124 20719 20721    1
 20125 20722 20723    1
 20126 20722 20724    1
 20127 20725 20726    1
 20128 20725 20727    1
 20129 20728 20729    1
 20130 20728 20730    1
 20131 20731 20732    1
 20132 20731 20733    1
 20133 20734 20735    1
 20134 20734 20736    1
 20135 20737 20738    1
 20136 20737 20739    1
 20137 20740 20741    1
 20138 20740 20742    1
 20139 20743 20744    1
 20140 20743 20745    1
 20141 20746 20747    1
 20142 20746 20748    1
 20143 20749 20750    1
 20144 20749 20751    1
 20145 20752 20753    1
 20146 20752 20754    1
 20147 20755 20756    1
 20148 20755 20757    1
 20149 20758 20759    1
 20150 20758 20760    1
 20151 20761 20762    1
 20152 20761 20763    1
 20153 20764 20765    1
 20154 20764 20766    1
 20155 20767 20768    1
 20156 20767 20769    1
 20157 20770 20771    1
 20158 20770 20772    1
 20159 20773 20774    1
 20160 20773 20775    1
 20161 20776 20777    1
 20162 20776 20778    1
 20163 20779 20780    1
 20164 20779 20781    1
 20165 20782 20783    1
 20166 20782 20784    1
 20167 20785 20786    1
 20168 20785 20787    1
 20169 20788 20789    1
 20170 20788 20790    1
 20171 20791 20792    1
 20172 20791 20793    1
 20173 20794 20795    1
 20174 20794 20796    1
 20175 20797 20798    1
 20176 20797 20799    1
 20177 20800 20801    1
 20178 20800 20802    1
 20179 20803 20804    1
 20180 20803 20805    1
 20181 20806 20807    1
 20182 20806 20808    1
 20183 20809 20810    1
 20184 20809 20811    1
 20185 20812 20813    1
 20186 20812 20814    1
 20187 20815 20816    1
 20188 20815 20817    1
 20189 20818 20819    1
 20190 20818 20820    1
 20191 20821 20822    1
 20192 20821 20823    1
 20193 20824 20825    1
 20194 20824 20826    1
 20195 20827 20828    1
 20196 20827 20829    1
 20197 20830 20831    1
 20198 20830 20832    1
 20199 20833 20834    1
 20200 20833 20835    1
 20201 20836 20837    1
 20202 20836 20838    1
 20203 20839 20840    1
 20204 20839 20841    1
 20205 20842 20843    1
 20206 20842 20844    1
 20207 20845 20846    1
 20208 20845 20847    1
 20209 20848 20849    1
 20210 20848 20850    1
 20211 20851 20852    1
 20212 20851 20853    1
 20213 20854 20855    1
 20214 20854 20856    1
 20215 20857 20858    1
 20216 20857 20859    1
 20217 20860 20861    1
 20218 20860 20862    1
 20219 20863 20864    1
 20220 20863 20865    1
 20221 20866 20867    1
 20222 20866 20868    1
 20223 20869 20870    1
 20224 20869 20871    1
 20225 20872 20873    1
 20226 20872 20874    1
 20227 20875 20876    1
 20228 20875 20877    1
 20229 20878 20879    1
 20230 20878 20880    1
 20231 20881 20882    1
 20232 20881 20883    1
 20233 20884 20885    1
 20234 20884 20886    1
 20235 20887 20888    1
 20236 20887 20889    1
 20237 20890 20891    1
 20238 20890 20892    1
 20239 20893 20894    1
 20240 20893 20895    1
 20241 20896 20897    1
 20242 20896 20898    1
 20243 20899 20900    1
 20244 20899 20901    1
 20245 20902 20903    1
 20246 20902 20904    1
 20247 20905 20906    1
 20248 20905 20907    1
 20249 20908 20909    1
 20250 20908 20910    1
 20251 20911 20912    1
 20252 20911 20913    1
 20253 20914 20915    1
 20254 20914 20916    1
 20255 20917 20918    1
 20256 20917 20919    1
 20257 20920 20921    1
 20258 20920 20922    1
 20259 20923 20924    1
 20260 20923 20925    1
 20261 20926 20927    1
 20262 20926 20928    1
 20263 20929 20930    1
 20264 20929 20931    1
 20265 20932 20933    1
 20266 20932 20934    1
 20267 20935 20936    1
 20268 20935 20937    1
 20269 20938 20939    1
 20270 20938 20940    1
 20271 20941 20942    1
 20272 20941 20943    1
 20273 20944 20945    1
 20274 20944 20946    1
 20275 20947 20948    1
 20276 20947 20949    1
 20277 20950 20951    1
 20278 20950 20952    1
 20279 20953 20954    1
 20280 20953 20955    1
 20281 20956 20957    1
 20282 20956 20958    1
 20283 20959 20960    1
 20284 20959 20961    1
 20285 20962 20963    1
 20286 20962 20964    1
 20287 20965 20966    1
 20288 20965 20967    1
 20289 20968 20969    1
 20290 20968 20970    1
 20291 20971 20972    1
 20292 20971 20973    1
 20293 20974 20975    1
 20294 20974 20976    1
 20295 20977 20978    1
 20296 20977 20979    1
 20297 20980 20981    1
 20298 20980 20982    1
 20299 20983 20984    1
 20300 20983 20985    1
 20301 20986 20987    1
 20302 20986 20988    1
 20303 20989 20990    1
 20304 20989 20991    1
 20305 20992 20993    1
 20306 20992 20994    1
 20307 20995 20996    1
 20308 20995 20997    1
 20309 20998 20999    1
 20310 20998 21000    1
 20311 21001 21002    1
 20312 21001 21003    1
 20313 21004 21005    1
 20314 21004 21006    1
 20315 21007 21008    1
 20316 21007 21009    1
 20317 21010 21011    1
 20318 21010 21012    1
 20319 21013 21014    1
 20320 21013 21015    1
 20321 21016 21017    1
 20322 21016 21018    1
 20323 21019 21020    1
 20324 21019 21021    1
 20325 21022 21023    1
 20326 21022 21024    1
 20327 21025 21026    1
 20328 21025 21027    1
 20329 21028 21029    1
 20330 21028 21030    1
 20331 21031 21032    1
 20332 21031 21033    1
 20333 21034 21035    1
 20334 21034 21036    1
 20335 21037 21038    1
 20336 21037 21039    1
 20337 21040 21041    1
 20338 21040 21042    1
 20339 21043 21044    1
 20340 21043 21045    1
 20341 21046 21047    1
 20342 21046 21048    1
 20343 21049 21050    1
 20344 21049 21051    1
 20345 21052 21053    1
 20346 21052 21054    1
 20347 21055 21056    1
 20348 21055 21057    1
 20349 21058 21059    1
 20350 21058 21060    1
 20351 21061 21062    1
 20352 21061 21063    1
 20353 21064 21065    1
 20354 21064 21066    1
 20355 21067 21068    1
 20356 21067 21069    1
 20357 21070 21071    1
 20358 21070 21072    1
 20359 21073 21074    1
 20360 21073 21075    1
 20361 21076 21077    1
 20362 21076 21078    1
 20363 21079 21080    1
 20364 21079 21081    1
 20365 21082 21083    1
 20366 21082 21084    1
 20367 21085 21086    1
 20368 21085 21087    1
 20369 21088 21089    1
 20370 21088 21090    1
 20371 21091 21092    1
 20372 21091 21093    1
 20373 21094 21095    1
 20374 21094 21096    1
 20375 21097 21098    1
 20376 21097 21099    1
 20377 21100 21101    1
 20378 21100 21102    1
 20379 21103 21104    1
 20380 21103 21105    1
 20381 21106 21107    1
 20382 21106 21108    1
 20383 21109 21110    1
 20384 21109 21111    1
 20385 21112 21113    1
 20386 21112 21114    1
 20387 21115 21116    1
 20388 21115 21117    1
 20389 21118 21119    1
 20390 21118 21120    1
 20391 21121 21122    1
 20392 21121 21123    1
 20393 21124 21125    1
 20394 21124 21126    1
 20395 21127 21128    1
 20396 21127 21129    1
 20397 21130 21131    1
 20398 21130 21132    1
 20399 21133 21134    1
 20400 21133 21135    1
 20401 21136 21137    1
 20402 21136 21138    1
 20403 21139 21140    1
 20404 21139 21141    1
 20405 21142 21143    1
 20406 21142 21144    1
 20407 21145 21146    1
 20408 21145 21147    1
 20409 21148 21149    1
 20410 21148 21150    1
 20411 21151 21152    1
 20412 21151 21153    1
 20413 21154 21155    1
 20414 21154 21156    1
 20415 21157 21158    1
 20416 21157 21159    1
 20417 21160 21161    1
 20418 21160 21162    1
 20419 21163 21164    1
 20420 21163 21165    1
 20421 21166 21167    1
 20422 21166 21168    1
 20423 21169 21170    1
 20424 21169 21171    1
 20425 21172 21173    1
 20426 21172 21174    1
 20427 21175 21176    1
 20428 21175 21177    1
 20429 21178 21179    1
 20430 21178 21180    1
 20431 21181 21182    1
 20432 21181 21183    1
 20433 21184 21185    1
 20434 21184 21186    1
 20435 21187 21188    1
 20436 21187 21189    1
 20437 21190 21191    1
 20438 21190 21192    1
 20439 21193 21194    1
 20440 21193 21195    1
 20441 21196 21197    1
 20442 21196 21198    1
 20443 21199 21200    1
 20444 21199 21201    1
 20445 21202 21203    1
 20446 21202 21204    1
 20447 21205 21206    1
 20448 21205 21207    1
 20449 21208 21209    1
 20450 21208 21210    1
 20451 21211 21212    1
 20452 21211 21213    1
 20453 21214 21215    1
 20454 21214 21216    1
 20455 21217 21218    1
 20456 21217 21219    1
 20457 21220 21221    1
 20458 21220 21222    1
 20459 21223 21224    1
 20460 21223 21225    1
 20461 21226 21227    1
 20462 21226 21228    1
 20463 21229 21230    1
 20464 21229 21231    1
 20465 21232 21233    1
 20466 21232 21234    1
 20467 21235 21236    1
 20468 21235 21237    1
 20469 21238 21239    1
 20470 21238 21240    1
 20471 21241 21242    1
 20472 21241 21243    1
 20473 21244 21245    1
 20474 21244 21246    1
 20475 21247 21248    1
 20476 21247 21249    1
 20477 21250 21251    1
 20478 21250 21252    1
 20479 21253 21254    1
 20480 21253 21255    1
 20481 21256 21257    1
 20482 21256 21258    1
 20483 21259 21260    1
 20484 21259 21261    1
 20485 21262 21263    1
 20486 21262 21264    1
 20487 21265 21266    1
 20488 21265 21267    1
 20489 21268 21269    1
 20490 21268 21270    1
 20491 21271 21272    1
 20492 21271 21273    1
 20493 21274 21275    1
 20494 21274 21276    1
 20495 21277 21278    1
 20496 21277 21279    1
 20497 21280 21281    1
 20498 21280 21282    1
 20499 21283 21284    1
 20500 21283 21285    1
 20501 21286 21287    1
 20502 21286 21288    1
 20503 21289 21290    1
 20504 21289 21291    1
 20505 21292 21293    1
 20506 21292 21294    1
 20507 21295 21296    1
 20508 21295 21297    1
 20509 21298 21299    1
 20510 21298 21300    1
 20511 21301 21302    1
 20512 21301 21303    1
 20513 21304 21305    1
 20514 21304 21306    1
 20515 21307 21308    1
 20516 21307 21309    1
 20517 21310 21311    1
 20518 21310 21312    1
 20519 21313 21314    1
 20520 21313 21315    1
 20521 21316 21317    1
 20522 21316 21318    1
 20523 21319 21320    1
 20524 21319 21321    1
 20525 21322 21323    1
 20526 21322 21324    1
 20527 21325 21326    1
 20528 21325 21327    1
 20529 21328 21329    1
 20530 21328 21330    1
 20531 21331 21332    1
 20532 21331 21333    1
 20533 21334 21335    1
 20534 21334 21336    1
 20535 21337 21338    1
 20536 21337 21339    1
 20537 21340 21341    1
 20538 21340 21342    1
 20539 21343 21344    1
 20540 21343 21345    1
 20541 21346 21347    1
 20542 21346 21348    1
 20543 21349 21350    1
 20544 21349 21351    1
 20545 21352 21353    1
 20546 21352 21354    1
 20547 21355 21356    1
 20548 21355 21357    1
 20549 21358 21359    1
 20550 21358 21360    1
 20551 21361 21362    1
 20552 21361 21363    1
 20553 21364 21365    1
 20554 21364 21366    1
 20555 21367 21368    1
 20556 21367 21369    1
 20557 21370 21371    1
 20558 21370 21372    1
 20559 21373 21374    1
 20560 21373 21375    1
 20561 21376 21377    1
 20562 21376 21378    1
 20563 21379 21380    1
 20564 21379 21381    1
 20565 21382 21383    1
 20566 21382 21384    1
 20567 21385 21386    1
 20568 21385 21387    1
 20569 21388 21389    1
 20570 21388 21390    1
 20571 21391 21392    1
 20572 21391 21393    1
 20573 21394 21395    1
 20574 21394 21396    1
 20575 21397 21398    1
 20576 21397 21399    1
 20577 21400 21401    1
 20578 21400 21402    1
 20579 21403 21404    1
 20580 21403 21405    1
 20581 21406 21407    1
 20582 21406 21408    1
 20583 21409 21410    1
 20584 21409 21411    1
 20585 21412 21413    1
 20586 21412 21414    1
 20587 21415 21416    1
 20588 21415 21417    1
 20589 21418 21419    1
 20590 21418 21420    1
 20591 21421 21422    1
 20592 21421 21423    1
 20593 21424 21425    1
 20594 21424 21426    1
 20595 21427 21428    1
 20596 21427 21429    1
 20597 21430 21431    1
 20598 21430 21432    1
 20599 21433 21434    1
 20600 21433 21435    1
 20601 21436 21437    1
 20602 21436 21438    1
 20603 21439 21440    1
 20604 21439 21441    1
 20605 21442 21443    1
 20606 21442 21444    1
 20607 21445 21446    1
 20608 21445 21447    1
 20609 21448 21449    1
 20610 21448 21450    1
 20611 21451 21452    1
 20612 21451 21453    1
 20613 21454 21455    1
 20614 21454 21456    1
 20615 21457 21458    1
 20616 21457 21459    1
 20617 21460 21461    1
 20618 21460 21462    1
 20619 21463 21464    1
 20620 21463 21465    1
 20621 21466 21467    1
 20622 21466 21468    1
 20623 21469 21470    1
 20624 21469 21471    1
 20625 21472 21473    1
 20626 21472 21474    1
 20627 21475 21476    1
 20628 21475 21477    1
 20629 21478 21479    1
 20630 21478 21480    1
 20631 21481 21482    1
 20632 21481 21483    1
 20633 21484 21485    1
 20634 21484 21486    1
 20635 21487 21488    1
 20636 21487 21489    1
 20637 21490 21491    1
 20638 21490 21492    1
 20639 21493 21494    1
 20640 21493 21495    1
 20641 21496 21497    1
 20642 21496 21498    1
 20643 21499 21500    1
 20644 21499 21501    1
 20645 21502 21503    1
 20646 21502 21504    1
 20647 21505 21506    1
 20648 21505 21507    1
 20649 21508 21509    1
 20650 21508 21510    1
 20651 21511 21512    1
 20652 21511 21513    1
 20653 21514 21515    1
 20654 21514 21516    1
 20655 21517 21518    1
 20656 21517 21519    1
 20657 21520 21521    1
 20658 21520 21522    1
 20659 21523 21524    1
 20660 21523 21525    1
 20661 21526 21527    1
 20662 21526 21528    1
 20663 21529 21530    1
 20664 21529 21531    1
 20665 21532 21533    1
 20666 21532 21534    1
 20667 21535 21536    1
 20668 21535 21537    1
 20669 21538 21539    1
 20670 21538 21540    1
 20671 21541 21542    1
 20672 21541 21543    1
 20673 21544 21545    1
 20674 21544 21546    1
 20675 21547 21548    1
 20676 21547 21549    1
 20677 21550 21551    1
 20678 21550 21552    1
 20679 21553 21554    1
 20680 21553 21555    1
 20681 21556 21557    1
 20682 21556 21558    1
 20683 21559 21560    1
 20684 21559 21561    1
 20685 21562 21563    1
 20686 21562 21564    1
 20687 21565 21566    1
 20688 21565 21567    1
 20689 21568 21569    1
 20690 21568 21570    1
 20691 21571 21572    1
 20692 21571 21573    1
 20693 21574 21575    1
 20694 21574 21576    1
 20695 21577 21578    1
 20696 21577 21579    1
 20697 21580 21581    1
 20698 21580 21582    1
 20699 21583 21584    1
 20700 21583 21585    1
 20701 21586 21587    1
 20702 21586 21588    1
 20703 21589 21590    1
 20704 21589 21591    1
 20705 21592 21593    1
 20706 21592 21594    1
 20707 21595 21596    1
 20708 21595 21597    1
 20709 21598 21599    1
 20710 21598 21600    1
 20711 21601 21602    1
 20712 21601 21603    1
 20713 21604 21605    1
 20714 21604 21606    1
 20715 21607 21608    1
 20716 21607 21609    1
 20717 21610 21611    1
 20718 21610 21612    1
 20719 21613 21614    1
 20720 21613 21615    1
 20721 21616 21617    1
 20722 21616 21618    1
 20723 21619 21620    1
 20724 21619 21621    1
 20725 21622 21623    1
 20726 21622 21624    1
 20727 21625 21626    1
 20728 21625 21627    1
 20729 21628 21629    1
 20730 21628 21630    1
 20731 21631 21632    1
 20732 21631 21633    1
 20733 21634 21635    1
 20734 21634 21636    1
 20735 21637 21638    1
 20736 21637 21639    1
 20737 21640 21641    1
 20738 21640 21642    1
 20739 21643 21644    1
 20740 21643 21645    1
 20741 21646 21647    1
 20742 21646 21648    1
 20743 21649 21650    1
 20744 21649 21651    1
 20745 21652 21653    1
 20746 21652 21654    1
 20747 21655 21656    1
 20748 21655 21657    1
 20749 21658 21659    1
 20750 21658 21660    1
 20751 21661 21662    1
 20752 21661 21663    1
 20753 21664 21665    1
 20754 21664 21666    1
 20755 21667 21668    1
 20756 21667 21669    1
 20757 21670 21671    1
 20758 21670 21672    1
 20759 21673 21674    1
 20760 21673 21675    1
 20761 21676 21677    1
 20762 21676 21678    1
 20763 21679 21680    1
 20764 21679 21681    1
 20765 21682 21683    1
 20766 21682 21684    1
 20767 21685 21686    1
 20768 21685 21687    1
 20769 21688 21689    1
 20770 21688 21690    1
 20771 21691 21692    1
 20772 21691 21693    1
 20773 21694 21695    1
 20774 21694 21696    1
 20775 21697 21698    1
 20776 21697 21699    1
 20777 21700 21701    1
 20778 21700 21702    1
 20779 21703 21704    1
 20780 21703 21705    1
 20781 21706 21707    1
 20782 21706 21708    1
 20783 21709 21710    1
 20784 21709 21711    1
 20785 21712 21713    1
 20786 21712 21714    1
 20787 21715 21716    1
 20788 21715 21717    1
 20789 21718 21719    1
 20790 21718 21720    1
 20791 21721 21722    1
 20792 21721 21723    1
 20793 21724 21725    1
 20794 21724 21726    1
 20795 21727 21728    1
 20796 21727 21729    1
 20797 21730 21731    1
 20798 21730 21732    1
 20799 21733 21734    1
 20800 21733 21735    1
 20801 21736 21737    1
 20802 21736 21738    1
 20803 21739 21740    1
 20804 21739 21741    1
 20805 21742 21743    1
 20806 21742 21744    1
 20807 21745 21746    1
 20808 21745 21747    1
 20809 21748 21749    1
 20810 21748 21750    1
 20811 21751 21752    1
 20812 21751 21753    1
 20813 21754 21755    1
 20814 21754 21756    1
 20815 21757 21758    1
 20816 21757 21759    1
 20817 21760 21761    1
 20818 21760 21762    1
 20819 21763 21764    1
 20820 21763 21765    1
 20821 21766 21767    1
 20822 21766 21768    1
 20823 21769 21770    1
 20824 21769 21771    1
 20825 21772 21773    1
 20826 21772 21774    1
 20827 21775 21776    1
 20828 21775 21777    1
 20829 21778 21779    1
 20830 21778 21780    1
 20831 21781 21782    1
 20832 21781 21783    1
 20833 21784 21785    1
 20834 21784 21786    1
 20835 21787 21788    1
 20836 21787 21789    1
 20837 21790 21791    1
 20838 21790 21792    1
 20839 21793 21794    1
 20840 21793 21795    1
 20841 21796 21797    1
 20842 21796 21798    1
 20843 21799 21800    1
 20844 21799 21801    1
 20845 21802 21803    1
 20846 21802 21804    1
 20847 21805 21806    1
 20848 21805 21807    1
 20849 21808 21809    1
 20850 21808 21810    1
 20851 21811 21812    1
 20852 21811 21813    1
 20853 21814 21815    1
 20854 21814 21816    1
 20855 21817 21818    1
 20856 21817 21819    1
 20857 21820 21821    1
 20858 21820 21822    1
 20859 21823 21824    1
 20860 21823 21825    1
 20861 21826 21827    1
 20862 21826 21828    1
 20863 21829 21830    1
 20864 21829 21831    1
 20865 21832 21833    1
 20866 21832 21834    1
 20867 21835 21836    1
 20868 21835 21837    1
 20869 21838 21839    1
 20870 21838 21840    1
 20871 21841 21842    1
 20872 21841 21843    1
 20873 21844 21845    1
 20874 21844 21846    1
 20875 21847 21848    1
 20876 21847 21849    1
 20877 21850 21851    1
 20878 21850 21852    1
 20879 21853 21854    1
 20880 21853 21855    1
 20881 21856 21857    1
 20882 21856 21858    1
 20883 21859 21860    1
 20884 21859 21861    1
 20885 21862 21863    1
 20886 21862 21864    1
 20887 21865 21866    1
 20888 21865 21867    1
 20889 21868 21869    1
 20890 21868 21870    1
 20891 21871 21872    1
 20892 21871 21873    1
 20893 21874 21875    1
 20894 21874 21876    1
 20895 21877 21878    1
 20896 21877 21879    1
 20897 21880 21881    1
 20898 21880 21882    1
 20899 21883 21884    1
 20900 21883 21885    1
 20901 21886 21887    1
 20902 21886 21888    1
 20903 21889 21890    1
 20904 21889 21891    1
 20905 21892 21893    1
 20906 21892 21894    1
 20907 21895 21896    1
 20908 21895 21897    1
 20909 21898 21899    1
 20910 21898 21900    1
 20911 21901 21902    1
 20912 21901 21903    1
 20913 21904 21905    1
 20914 21904 21906    1
 20915 21907 21908    1
 20916 21907 21909    1
 20917 21910 21911    1
 20918 21910 21912    1
 20919 21913 21914    1
 20920 21913 21915    1
 20921 21916 21917    1
 20922 21916 21918    1
 20923 21919 21920    1
 20924 21919 21921    1
 20925 21922 21923    1
 20926 21922 21924    1
 20927 21925 21926    1
 20928 21925 21927    1
 20929 21928 21929    1
 20930 21928 21930    1
 20931 21931 21932    1
 20932 21931 21933    1
 20933 21934 21935    1
 20934 21934 21936    1
 20935 21937 21938    1
 20936 21937 21939    1
 20937 21940 21941    1
 20938 21940 21942    1
 20939 21943 21944    1
 20940 21943 21945    1
 20941 21946 21947    1
 20942 21946 21948    1
 20943 21949 21950    1
 20944 21949 21951    1
 20945 21952 21953    1
 20946 21952 21954    1
 20947 21955 21956    1
 20948 21955 21957    1
 20949 21958 21959    1
 20950 21958 21960    1
 20951 21961 21962    1
 20952 21961 21963    1
 20953 21964 21965    1
 20954 21964 21966    1
 20955 21967 21968    1
 20956 21967 21969    1
 20957 21970 21971    1
 20958 21970 21972    1
 20959 21973 21974    1
 20960 21973 21975    1
 20961 21976 21977    1
 20962 21976 21978    1
 20963 21979 21980    1
 20964 21979 21981    1
 20965 21982 21983    1
 20966 21982 21984    1
 20967 21985 21986    1
 20968 21985 21987    1
 20969 21988 21989    1
 20970 21988 21990    1
 20971 21991 21992    1
 20972 21991 21993    1
 20973 21994 21995    1
 20974 21994 21996    1
 20975 21997 21998    1
 20976 21997 21999    1
 20977 22000 22001    1
 20978 22000 22002    1
 20979 22003 22004    1
 20980 22003 22005    1
 20981 22006 22007    1
 20982 22006 22008    1
 20983 22009 22010    1
 20984 22009 22011    1
 20985 22012 22013    1
 20986 22012 22014    1
 20987 22015 22016    1
 20988 22015 22017    1
 20989 22018 22019    1
 20990 22018 22020    1
 20991 22021 22022    1
 20992 22021 22023    1
 20993 22024 22025    1
 20994 22024 22026    1
 20995 22027 22028    1
 20996 22027 22029    1
 20997 22030 22031    1
 20998 22030 22032    1
 20999 22033 22034    1
 21000 22033 22035    1
 21001 22036 22037    1
 21002 22036 22038    1
 21003 22039 22040    1
 21004 22039 22041    1
 21005 22042 22043    1
 21006 22042 22044    1
 21007 22045 22046    1
 21008 22045 22047    1
 21009 22048 22049    1
 21010 22048 22050    1
 21011 22051 22052    1
 21012 22051 22053    1
 21013 22054 22055    1
 21014 22054 22056    1
 21015 22057 22058    1
 21016 22057 22059    1
 21017 22060 22061    1
 21018 22060 22062    1
 21019 22063 22064    1
 21020 22063 22065    1
 21021 22066 22067    1
 21022 22066 22068    1
 21023 22069 22070    1
 21024 22069 22071    1
 21025 22072 22073    1
 21026 22072 22074    1
 21027 22075 22076    1
 21028 22075 22077    1
 21029 22078 22079    1
 21030 22078 22080    1
 21031 22081 22082    1
 21032 22081 22083    1
 21033 22084 22085    1
 21034 22084 22086    1
 21035 22087 22088    1
 21036 22087 22089    1
 21037 22090 22091    1
 21038 22090 22092    1
 21039 22093 22094    1
 21040 22093 22095    1
 21041 22096 22097    1
 21042 22096 22098    1
 21043 22099 22100    1
 21044 22099 22101    1
 21045 22102 22103    1
 21046 22102 22104    1
 21047 22105 22106    1
 21048 22105 22107    1
 21049 22108 22109    1
 21050 22108 22110    1
 21051 22111 22112    1
 21052 22111 22113    1
 21053 22114 22115    1
 21054 22114 22116    1
 21055 22117 22118    1
 21056 22117 22119    1
 21057 22120 22121    1
 21058 22120 22122    1
 21059 22123 22124    1
 21060 22123 22125    1
 21061 22126 22127    1
 21062 22126 22128    1
 21063 22129 22130    1
 21064 22129 22131    1
 21065 22132 22133    1
 21066 22132 22134    1
 21067 22135 22136    1
 21068 22135 22137    1
 21069 22138 22139    1
 21070 22138 22140    1
 21071 22141 22142    1
 21072 22141 22143    1
 21073 22144 22145    1
 21074 22144 22146    1
 21075 22147 22148    1
 21076 22147 22149    1
 21077 22150 22151    1
 21078 22150 22152    1
 21079 22153 22154    1
 21080 22153 22155    1
 21081 22156 22157    1
 21082 22156 22158    1
 21083 22159 22160    1
 21084 22159 22161    1
 21085 22162 22163    1
 21086 22162 22164    1
 21087 22165 22166    1
 21088 22165 22167    1
 21089 22168 22169    1
 21090 22168 22170    1
 21091 22171 22172    1
 21092 22171 22173    1
 21093 22174 22175    1
 21094 22174 22176    1
 21095 22177 22178    1
 21096 22177 22179    1
 21097 22180 22181    1
 21098 22180 22182    1
 21099 22183 22184    1
 21100 22183 22185    1
 21101 22186 22187    1
 21102 22186 22188    1
 21103 22189 22190    1
 21104 22189 22191    1
 21105 22192 22193    1
 21106 22192 22194    1
 21107 22195 22196    1
 21108 22195 22197    1
 21109 22198 22199    1
 21110 22198 22200    1
 21111 22201 22202    1
 21112 22201 22203    1
 21113 22204 22205    1
 21114 22204 22206    1
 21115 22207 22208    1
 21116 22207 22209    1
 21117 22210 22211    1
 21118 22210 22212    1
 21119 22213 22214    1
 21120 22213 22215    1
 21121 22216 22217    1
 21122 22216 22218    1
 21123 22219 22220    1
 21124 22219 22221    1
 21125 22222 22223    1
 21126 22222 22224    1
 21127 22225 22226    1
 21128 22225 22227    1
 21129 22228 22229    1
 21130 22228 22230    1
 21131 22231 22232    1
 21132 22231 22233    1
 21133 22234 22235    1
 21134 22234 22236    1
 21135 22237 22238    1
 21136 22237 22239    1
 21137 22240 22241    1
 21138 22240 22242    1
 21139 22243 22244    1
 21140 22243 22245    1
 21141 22246 22247    1
 21142 22246 22248    1
 21143 22249 22250    1
 21144 22249 22251    1
 21145 22252 22253    1
 21146 22252 22254    1
 21147 22255 22256    1
 21148 22255 22257    1
 21149 22258 22259    1
 21150 22258 22260    1
 21151 22261 22262    1
 21152 22261 22263    1
 21153 22264 22265    1
 21154 22264 22266    1
 21155 22267 22268    1
 21156 22267 22269    1
 21157 22270 22271    1
 21158 22270 22272    1
 21159 22273 22274    1
 21160 22273 22275    1
 21161 22276 22277    1
 21162 22276 22278    1
 21163 22279 22280    1
 21164 22279 22281    1
 21165 22282 22283    1
 21166 22282 22284    1
 21167 22285 22286    1
 21168 22285 22287    1
 21169 22288 22289    1
 21170 22288 22290    1
 21171 22291 22292    1
 21172 22291 22293    1
 21173 22294 22295    1
 21174 22294 22296    1
 21175 22297 22298    1
 21176 22297 22299    1
 21177 22300 22301    1
 21178 22300 22302    1
 21179 22303 22304    1
 21180 22303 22305    1
 21181 22306 22307    1
 21182 22306 22308    1
 21183 22309 22310    1
 21184 22309 22311    1
 21185 22312 22313    1
 21186 22312 22314    1
 21187 22315 22316    1
 21188 22315 22317    1
 21189 22318 22319    1
 21190 22318 22320    1
 21191 22321 22322    1
 21192 22321 22323    1
 21193 22324 22325    1
 21194 22324 22326    1
 21195 22327 22328    1
 21196 22327 22329    1
 21197 22330 22331    1
 21198 22330 22332    1
 21199 22333 22334    1
 21200 22333 22335    1
 21201 22336 22337    1
 21202 22336 22338    1
 21203 22339 22340    1
 21204 22339 22341    1
 21205 22342 22343    1
 21206 22342 22344    1
 21207 22345 22346    1
 21208 22345 22347    1
 21209 22348 22349    1
 21210 22348 22350    1
 21211 22351 22352    1
 21212 22351 22353    1
 21213 22354 22355    1
 21214 22354 22356    1
 21215 22357 22358    1
 21216 22357 22359    1
 21217 22360 22361    1
 21218 22360 22362    1
 21219 22363 22364    1
 21220 22363 22365    1
 21221 22366 22367    1
 21222 22366 22368    1
 21223 22369 22370    1
 21224 22369 22371    1
 21225 22372 22373    1
 21226 22372 22374    1
 21227 22375 22376    1
 21228 22375 22377    1
 21229 22378 22379    1
 21230 22378 22380    1
 21231 22381 22382    1
 21232 22381 22383    1
 21233 22384 22385    1
 21234 22384 22386    1
 21235 22387 22388    1
 21236 22387 22389    1
 21237 22390 22391    1
 21238 22390 22392    1
 21239 22393 22394    1
 21240 22393 22395    1
 21241 22396 22397    1
 21242 22396 22398    1
 21243 22399 22400    1
 21244 22399 22401    1
 21245 22402 22403    1
 21246 22402 22404    1
 21247 22405 22406    1
 21248 22405 22407    1
 21249 22408 22409    1
 21250 22408 22410    1
 21251 22411 22412    1
 21252 22411 22413    1
 21253 22414 22415    1
 21254 22414 22416    1
 21255 22417 22418    1
 21256 22417 22419    1
 21257 22420 22421    1
 21258 22420 22422    1
 21259 22423 22424    1
 21260 22423 22425    1
 21261 22426 22427    1
 21262 22426 22428    1
 21263 22429 22430    1
 21264 22429 22431    1
 21265 22432 22433    1
 21266 22432 22434    1
 21267 22435 22436    1
 21268 22435 22437    1
 21269 22438 22439    1
 21270 22438 22440    1
 21271 22441 22442    1
 21272 22441 22443    1
 21273 22444 22445    1
 21274 22444 22446    1
 21275 22447 22448    1
 21276 22447 22449    1
 21277 22450 22451    1
 21278 22450 22452    1
 21279 22453 22454    1
 21280 22453 22455    1
 21281 22456 22457    1
 21282 22456 22458    1
 21283 22459 22460    1
 21284 22459 22461    1
 21285 22462 22463    1
 21286 22462 22464    1
 21287 22465 22466    1
 21288 22465 22467    1
 21289 22468 22469    1
 21290 22468 22470    1
 21291 22471 22472    1
 21292 22471 22473    1
 21293 22474 22475    1
 21294 22474 22476    1
 21295 22477 22478    1
 21296 22477 22479    1
 21297 22480 22481    1
 21298 22480 22482    1
 21299 22483 22484    1
 21300 22483 22485    1
 21301 22486 22487    1
 21302 22486 22488    1
 21303 22489 22490    1
 21304 22489 22491    1
 21305 22492 22493    1
 21306 22492 22494    1
 21307 22495 22496    1
 21308 22495 22497    1
 21309 22498 22499    1
 21310 22498 22500    1
 21311 22501 22502    1
 21312 22501 22503    1
 21313 22504 22505    1
 21314 22504 22506    1
 21315 22507 22508    1
 21316 22507 22509    1
 21317 22510 22511    1
 21318 22510 22512    1
 21319 22513 22514    1
 21320 22513 22515    1
 21321 22516 22517    1
 21322 22516 22518    1
 21323 22519 22520    1
 21324 22519 22521    1
 21325 22522 22523    1
 21326 22522 22524    1
 21327 22525 22526    1
 21328 22525 22527    1
 21329 22528 22529    1
 21330 22528 22530    1
 21331 22531 22532    1
 21332 22531 22533    1
 21333 22534 22535    1
 21334 22534 22536    1
 21335 22537 22538    1
 21336 22537 22539    1
 21337 22540 22541    1
 21338 22540 22542    1
 21339 22543 22544    1
 21340 22543 22545    1
 21341 22546 22547    1
 21342 22546 22548    1
 21343 22549 22550    1
 21344 22549 22551    1
 21345 22552 22553    1
 21346 22552 22554    1
 21347 22555 22556    1
 21348 22555 22557    1
 21349 22558 22559    1
 21350 22558 22560    1
 21351 22561 22562    1
 21352 22561 22563    1
 21353 22564 22565    1
 21354 22564 22566    1
 21355 22567 22568    1
 21356 22567 22569    1
 21357 22570 22571    1
 21358 22570 22572    1
 21359 22573 22574    1
 21360 22573 22575    1
 21361 22576 22577    1
 21362 22576 22578    1
 21363 22579 22580    1
 21364 22579 22581    1
 21365 22582 22583    1
 21366 22582 22584    1
 21367 22585 22586    1
 21368 22585 22587    1
 21369 22588 22589    1
 21370 22588 22590    1
 21371 22591 22592    1
 21372 22591 22593    1
 21373 22594 22595    1
 21374 22594 22596    1
 21375 22597 22598    1
 21376 22597 22599    1
 21377 22600 22601    1
 21378 22600 22602    1
 21379 22603 22604    1
 21380 22603 22605    1
 21381 22606 22607    1
 21382 22606 22608    1
 21383 22609 22610    1
 21384 22609 22611    1
 21385 22612 22613    1
 21386 22612 22614    1
 21387 22615 22616    1
 21388 22615 22617    1
 21389 22618 22619    1
 21390 22618 22620    1
 21391 22621 22622    1
 21392 22621 22623    1
 21393 22624 22625    1
 21394 22624 22626    1
 21395 22627 22628    1
 21396 22627 22629    1
 21397 22630 22631    1
 21398 22630 22632    1
 21399 22633 22634    1
 21400 22633 22635    1
 21401 22636 22637    1
 21402 22636 22638    1
 21403 22639 22640    1
 21404 22639 22641    1
 21405 22642 22643    1
 21406 22642 22644    1
 21407 22645 22646    1
 21408 22645 22647    1
 21409 22648 22649    1
 21410 22648 22650    1
 21411 22651 22652    1
 21412 22651 22653    1
 21413 22654 22655    1
 21414 22654 22656    1
 21415 22657 22658    1
 21416 22657 22659    1
 21417 22660 22661    1
 21418 22660 22662    1
 21419 22663 22664    1
 21420 22663 22665    1
 21421 22666 22667    1
 21422 22666 22668    1
 21423 22669 22670    1
 21424 22669 22671    1
 21425 22672 22673    1
 21426 22672 22674    1
 21427 22675 22676    1
 21428 22675 22677    1
 21429 22678 22679    1
 21430 22678 22680    1
 21431 22681 22682    1
 21432 22681 22683    1
 21433 22684 22685    1
 21434 22684 22686    1
 21435 22687 22688    1
 21436 22687 22689    1
 21437 22690 22691    1
 21438 22690 22692    1
 21439 22693 22694    1
 21440 22693 22695    1
 21441 22696 22697    1
 21442 22696 22698    1
 21443 22699 22700    1
 21444 22699 22701    1
 21445 22702 22703    1
 21446 22702 22704    1
 21447 22705 22706    1
 21448 22705 22707    1
 21449 22708 22709    1
 21450 22708 22710    1
 21451 22711 22712    1
 21452 22711 22713    1
 21453 22714 22715    1
 21454 22714 22716    1
 21455 22717 22718    1
 21456 22717 22719    1
 21457 22720 22721    1
 21458 22720 22722    1
 21459 22723 22724    1
 21460 22723 22725    1
 21461 22726 22727    1
 21462 22726 22728    1
 21463 22729 22730    1
 21464 22729 22731    1
 21465 22732 22733    1
 21466 22732 22734    1
 21467 22735 22736    1
 21468 22735 22737    1
 21469 22738 22739    1
 21470 22738 22740    1
 21471 22741 22742    1
 21472 22741 22743    1
 21473 22744 22745    1
 21474 22744 22746    1
 21475 22747 22748    1
 21476 22747 22749    1
 21477 22750 22751    1
 21478 22750 22752    1
 21479 22753 22754    1
 21480 22753 22755    1
 21481 22756 22757    1
 21482 22756 22758    1
 21483 22759 22760    1
 21484 22759 22761    1
 21485 22762 22763    1
 21486 22762 22764    1
 21487 22765 22766    1
 21488 22765 22767    1
 21489 22768 22769    1
 21490 22768 22770    1
 21491 22771 22772    1
 21492 22771 22773    1
 21493 22774 22775    1
 21494 22774 22776    1
 21495 22777 22778    1
 21496 22777 22779    1
 21497 22780 22781    1
 21498 22780 22782    1
 21499 22783 22784    1
 21500 22783 22785    1
 21501 22786 22787    1
 21502 22786 22788    1
 21503 22789 22790    1
 21504 22789 22791    1
 21505 22792 22793    1
 21506 22792 22794    1
 21507 22795 22796    1
 21508 22795 22797    1
 21509 22798 22799    1
 21510 22798 22800    1
 21511 22801 22802    1
 21512 22801 22803    1
 21513 22804 22805    1
 21514 22804 22806    1
 21515 22807 22808    1
 21516 22807 22809    1
 21517 22810 22811    1
 21518 22810 22812    1
 21519 22813 22814    1
 21520 22813 22815    1
 21521 22816 22817    1
 21522 22816 22818    1
 21523 22819 22820    1
 21524 22819 22821    1
 21525 22822 22823    1
 21526 22822 22824    1
 21527 22825 22826    1
 21528 22825 22827    1
 21529 22828 22829    1
 21530 22828 22830    1
 21531 22831 22832    1
 21532 22831 22833    1
 21533 22834 22835    1
 21534 22834 22836    1
 21535 22837 22838    1
 21536 22837 22839    1
 21537 22840 22841    1
 21538 22840 22842    1
 21539 22843 22844    1
 21540 22843 22845    1
 21541 22846 22847    1
 21542 22846 22848    1
 21543 22849 22850    1
 21544 22849 22851    1
 21545 22852 22853    1
 21546 22852 22854    1
 21547 22855 22856    1
 21548 22855 22857    1
 21549 22858 22859    1
 21550 22858 22860    1
 21551 22861 22862    1
 21552 22861 22863    1
 21553 22864 22865    1
 21554 22864 22866    1
 21555 22867 22868    1
 21556 22867 22869    1
 21557 22870 22871    1
 21558 22870 22872    1
 21559 22873 22874    1
 21560 22873 22875    1
 21561 22876 22877    1
 21562 22876 22878    1
 21563 22879 22880    1
 21564 22879 22881    1
 21565 22882 22883    1
 21566 22882 22884    1
 21567 22885 22886    1
 21568 22885 22887    1
 21569 22888 22889    1
 21570 22888 22890    1
 21571 22891 22892    1
 21572 22891 22893    1
 21573 22894 22895    1
 21574 22894 22896    1
 21575 22897 22898    1
 21576 22897 22899    1
 21577 22900 22901    1
 21578 22900 22902    1
 21579 22903 22904    1
 21580 22903 22905    1
 21581 22906 22907    1
 21582 22906 22908    1
 21583 22909 22910    1
 21584 22909 22911    1
 21585 22912 22913    1
 21586 22912 22914    1
 21587 22915 22916    1
 21588 22915 22917    1
 21589 22918 22919    1
 21590 22918 22920    1
 21591 22921 22922    1
 21592 22921 22923    1
 21593 22924 22925    1
 21594 22924 22926    1
 21595 22927 22928    1
 21596 22927 22929    1
 21597 22930 22931    1
 21598 22930 22932    1
 21599 22933 22934    1
 21600 22933 22935    1
 21601 22936 22937    1
 21602 22936 22938    1
 21603 22939 22940    1
 21604 22939 22941    1
 21605 22942 22943    1
 21606 22942 22944    1
 21607 22945 22946    1
 21608 22945 22947    1
 21609 22948 22949    1
 21610 22948 22950    1
 21611 22951 22952    1
 21612 22951 22953    1
 21613 22954 22955    1
 21614 22954 22956    1
 21615 22957 22958    1
 21616 22957 22959    1
 21617 22960 22961    1
 21618 22960 22962    1
 21619 22963 22964    1
 21620 22963 22965    1
 21621 22966 22967    1
 21622 22966 22968    1
 21623 22969 22970    1
 21624 22969 22971    1
 21625 22972 22973    1
 21626 22972 22974    1
 21627 22975 22976    1
 21628 22975 22977    1
 21629 22978 22979    1
 21630 22978 22980    1
 21631 22981 22982    1
 21632 22981 22983    1
 21633 22984 22985    1
 21634 22984 22986    1
 21635 22987 22988    1
 21636 22987 22989    1
 21637 22990 22991    1
 21638 22990 22992    1
 21639 22993 22994    1
 21640 22993 22995    1
 21641 22996 22997    1
 21642 22996 22998    1
 21643 22999 23000    1
 21644 22999 23001    1
 21645 23002 23003    1
 21646 23002 23004    1
 21647 23005 23006    1
 21648 23005 23007    1
 21649 23008 23009    1
 21650 23008 23010    1
 21651 23011 23012    1
 21652 23011 23013    1
 21653 23014 23015    1
 21654 23014 23016    1
 21655 23017 23018    1
 21656 23017 23019    1
 21657 23020 23021    1
 21658 23020 23022    1
 21659 23023 23024    1
 21660 23023 23025    1
 21661 23026 23027    1
 21662 23026 23028    1
 21663 23029 23030    1
 21664 23029 23031    1
 21665 23032 23033    1
 21666 23032 23034    1
 21667 23035 23036    1
 21668 23035 23037    1
 21669 23038 23039    1
 21670 23038 23040    1
 21671 23041 23042    1
 21672 23041 23043    1
 21673 23044 23045    1
 21674 23044 23046    1
 21675 23047 23048    1
 21676 23047 23049    1
 21677 23050 23051    1
 21678 23050 23052    1
 21679 23053 23054    1
 21680 23053 23055    1
 21681 23056 23057    1
 21682 23056 23058    1
 21683 23059 23060    1
 21684 23059 23061    1
 21685 23062 23063    1
 21686 23062 23064    1
 21687 23065 23066    1
 21688 23065 23067    1
 21689 23068 23069    1
 21690 23068 23070    1
 21691 23071 23072    1
 21692 23071 23073    1
 21693 23074 23075    1
 21694 23074 23076    1
 21695 23077 23078    1
 21696 23077 23079    1
 21697 23080 23081    1
 21698 23080 23082    1
 21699 23083 23084    1
 21700 23083 23085    1
 21701 23086 23087    1
 21702 23086 23088    1
 21703 23089 23090    1
 21704 23089 23091    1
 21705 23092 23093    1
 21706 23092 23094    1
 21707 23095 23096    1
 21708 23095 23097    1
 21709 23098 23099    1
 21710 23098 23100    1
 21711 23101 23102    1
 21712 23101 23103    1
 21713 23104 23105    1
 21714 23104 23106    1
 21715 23107 23108    1
 21716 23107 23109    1
 21717 23110 23111    1
 21718 23110 23112    1
 21719 23113 23114    1
 21720 23113 23115    1
 21721 23116 23117    1
 21722 23116 23118    1
 21723 23119 23120    1
 21724 23119 23121    1
 21725 23122 23123    1
 21726 23122 23124    1
 21727 23125 23126    1
 21728 23125 23127    1
 21729 23128 23129    1
 21730 23128 23130    1
 21731 23131 23132    1
 21732 23131 23133    1
 21733 23134 23135    1
 21734 23134 23136    1
 21735 23137 23138    1
 21736 23137 23139    1
 21737 23140 23141    1
 21738 23140 23142    1
 21739 23143 23144    1
 21740 23143 23145    1
 21741 23146 23147    1
 21742 23146 23148    1
 21743 23149 23150    1
 21744 23149 23151    1
 21745 23152 23153    1
 21746 23152 23154    1
 21747 23155 23156    1
 21748 23155 23157    1
 21749 23158 23159    1
 21750 23158 23160    1
 21751 23161 23162    1
 21752 23161 23163    1
 21753 23164 23165    1
 21754 23164 23166    1
 21755 23167 23168    1
 21756 23167 23169    1
 21757 23170 23171    1
 21758 23170 23172    1
 21759 23173 23174    1
 21760 23173 23175    1
 21761 23176 23177    1
 21762 23176 23178    1
 21763 23179 23180    1
 21764 23179 23181    1
 21765 23182 23183    1
 21766 23182 23184    1
 21767 23185 23186    1
 21768 23185 23187    1
 21769 23188 23189    1
 21770 23188 23190    1
 21771 23191 23192    1
 21772 23191 23193    1
 21773 23194 23195    1
 21774 23194 23196    1
 21775 23197 23198    1
 21776 23197 23199    1
 21777 23200 23201    1
 21778 23200 23202    1
 21779 23203 23204    1
 21780 23203 23205    1
 21781 23206 23207    1
 21782 23206 23208    1
 21783 23209 23210    1
 21784 23209 23211    1
 21785 23212 23213    1
 21786 23212 23214    1
 21787 23215 23216    1
 21788 23215 23217    1
 21789 23218 23219    1
 21790 23218 23220    1
 21791 23221 23222    1
 21792 23221 23223    1
 21793 23224 23225    1
 21794 23224 23226    1
 21795 23227 23228    1
 21796 23227 23229    1
 21797 23230 23231    1
 21798 23230 23232    1
 21799 23233 23234    1
 21800 23233 23235    1
 21801 23236 23237    1
 21802 23236 23238    1
 21803 23239 23240    1
 21804 23239 23241    1
 21805 23242 23243    1
 21806 23242 23244    1
 21807 23245 23246    1
 21808 23245 23247    1
 21809 23248 23249    1
 21810 23248 23250    1
 21811 23251 23252    1
 21812 23251 23253    1
 21813 23254 23255    1
 21814 23254 23256    1
 21815 23257 23258    1
 21816 23257 23259    1
 21817 23260 23261    1
 21818 23260 23262    1
 21819 23263 23264    1
 21820 23263 23265    1
 21821 23266 23267    1
 21822 23266 23268    1
 21823 23269 23270    1
 21824 23269 23271    1
 21825 23272 23273    1
 21826 23272 23274    1
 21827 23275 23276    1
 21828 23275 23277    1
 21829 23278 23279    1
 21830 23278 23280    1
 21831 23281 23282    1
 21832 23281 23283    1
 21833 23284 23285    1
 21834 23284 23286    1
 21835 23287 23288    1
 21836 23287 23289    1
 21837 23290 23291    1
 21838 23290 23292    1
 21839 23293 23294    1
 21840 23293 23295    1
 21841 23296 23297    1
 21842 23296 23298    1
 21843 23299 23300    1
 21844 23299 23301    1
 21845 23302 23303    1
 21846 23302 23304    1
 21847 23305 23306    1
 21848 23305 23307    1
 21849 23308 23309    1
 21850 23308 23310    1
 21851 23311 23312    1
 21852 23311 23313    1
 21853 23314 23315    1
 21854 23314 23316    1
 21855 23317 23318    1
 21856 23317 23319    1
 21857 23320 23321    1
 21858 23320 23322    1
 21859 23323 23324    1
 21860 23323 23325    1
 21861 23326 23327    1
 21862 23326 23328    1
 21863 23329 23330    1
 21864 23329 23331    1
 21865 23332 23333    1
 21866 23332 23334    1
 21867 23335 23336    1
 21868 23335 23337    1
 21869 23338 23339    1
 21870 23338 23340    1
 21871 23341 23342    1
 21872 23341 23343    1
 21873 23344 23345    1
 21874 23344 23346    1
 21875 23347 23348    1
 21876 23347 23349    1
 21877 23350 23351    1
 21878 23350 23352    1
 21879 23353 23354    1
 21880 23353 23355    1
 21881 23356 23357    1
 21882 23356 23358    1
 21883 23359 23360    1
 21884 23359 23361    1
 21885 23362 23363    1
 21886 23362 23364    1
 21887 23365 23366    1
 21888 23365 23367    1
 21889 23368 23369    1
 21890 23368 23370    1
 21891 23371 23372    1
 21892 23371 23373    1
 21893 23374 23375    1
 21894 23374 23376    1
 21895 23377 23378    1
 21896 23377 23379    1
 21897 23380 23381    1
 21898 23380 23382    1
 21899 23383 23384    1
 21900 23383 23385    1
 21901 23386 23387    1
 21902 23386 23388    1
 21903 23389 23390    1
 21904 23389 23391    1
 21905 23392 23393    1
 21906 23392 23394    1
 21907 23395 23396    1
 21908 23395 23397    1
 21909 23398 23399    1
 21910 23398 23400    1
 21911 23401 23402    1
 21912 23401 23403    1
 21913 23404 23405    1
 21914 23404 23406    1
 21915 23407 23408    1
 21916 23407 23409    1
 21917 23410 23411    1
 21918 23410 23412    1
 21919 23413 23414    1
 21920 23413 23415    1
 21921 23416 23417    1
 21922 23416 23418    1
 21923 23419 23420    1
 21924 23419 23421    1
 21925 23422 23423    1
 21926 23422 23424    1
 21927 23425 23426    1
 21928 23425 23427    1
 21929 23428 23429    1
 21930 23428 23430    1
 21931 23431 23432    1
 21932 23431 23433    1
 21933 23434 23435    1
 21934 23434 23436    1
 21935 23437 23438    1
 21936 23437 23439    1
 21937 23440 23441    1
 21938 23440 23442    1
 21939 23443 23444    1
 21940 23443 23445    1
 21941 23446 23447    1
 21942 23446 23448    1
 21943 23449 23450    1
 21944 23449 23451    1
 21945 23452 23453    1
 21946 23452 23454    1
 21947 23455 23456    1
 21948 23455 23457    1
 21949 23458 23459    1
 21950 23458 23460    1
 21951 23461 23462    1
 21952 23461 23463    1
 21953 23464 23465    1
 21954 23464 23466    1
 21955 23467 23468    1
 21956 23467 23469    1
 21957 23470 23471    1
 21958 23470 23472    1
 21959 23473 23474    1
 21960 23473 23475    1
 21961 23476 23477    1
 21962 23476 23478    1
 21963 23479 23480    1
 21964 23479 23481    1
 21965 23482 23483    1
 21966 23482 23484    1
 21967 23485 23486    1
 21968 23485 23487    1
 21969 23488 23489    1
 21970 23488 23490    1
 21971 23491 23492    1
 21972 23491 23493    1
 21973 23494 23495    1
 21974 23494 23496    1
 21975 23497 23498    1
 21976 23497 23499    1
 21977 23500 23501    1
 21978 23500 23502    1
 21979 23503 23504    1
 21980 23503 23505    1
 21981 23506 23507    1
 21982 23506 23508    1
 21983 23509 23510    1
 21984 23509 23511    1
 21985 23512 23513    1
 21986 23512 23514    1
 21987 23515 23516    1
 21988 23515 23517    1
 21989 23518 23519    1
 21990 23518 23520    1
 21991 23521 23522    1
 21992 23521 23523    1
 21993 23524 23525    1
 21994 23524 23526    1
 21995 23527 23528    1
 21996 23527 23529    1
 21997 23530 23531    1
 21998 23530 23532    1
 21999 23533 23534    1
 22000 23533 23535    1
 22001 23536 23537    1
 22002 23536 23538    1
 22003 23539 23540    1
 22004 23539 23541    1
 22005 23542 23543    1
 22006 23542 23544    1
 22007 23545 23546    1
 22008 23545 23547    1
 22009 23548 23549    1
 22010 23548 23550    1
 22011 23551 23552    1
 22012 23551 23553    1
 22013 23554 23555    1
 22014 23554 23556    1
 22015 23557 23558    1
 22016 23557 23559    1
 22017 23560 23561    1
 22018 23560 23562    1
 22019 23563 23564    1
 22020 23563 23565    1
 22021 23566 23567    1
 22022 23566 23568    1
 22023 23569 23570    1
 22024 23569 23571    1
 22025 23572 23573    1
 22026 23572 23574    1
 22027 23575 23576    1
 22028 23575 23577    1
 22029 23578 23579    1
 22030 23578 23580    1
 22031 23581 23582    1
 22032 23581 23583    1
 22033 23584 23585    1
 22034 23584 23586    1
 22035 23587 23588    1
 22036 23587 23589    1
 22037 23590 23591    1
 22038 23590 23592    1
 22039 23593 23594    1
 22040 23593 23595    1
 22041 23596 23597    1
 22042 23596 23598    1
 22043 23599 23600    1
 22044 23599 23601    1
 22045 23602 23603    1
 22046 23602 23604    1
 22047 23605 23606    1
 22048 23605 23607    1
 22049 23608 23609    1
 22050 23608 23610    1
 22051 23611 23612    1
 22052 23611 23613    1
 22053 23614 23615    1
 22054 23614 23616    1
 22055 23617 23618    1
 22056 23617 23619    1
 22057 23620 23621    1
 22058 23620 23622    1
 22059 23623 23624    1
 22060 23623 23625    1
 22061 23626 23627    1
 22062 23626 23628    1
 22063 23629 23630    1
 22064 23629 23631    1
 22065 23632 23633    1
 22066 23632 23634    1
 22067 23635 23636    1
 22068 23635 23637    1
 22069 23638 23639    1
 22070 23638 23640    1
 22071 23641 23642    1
 22072 23641 23643    1
 22073 23644 23645    1
 22074 23644 23646    1
 22075 23647 23648    1
 22076 23647 23649    1
 22077 23650 23651    1
 22078 23650 23652    1
 22079 23653 23654    1
 22080 23653 23655    1
 22081 23656 23657    1
 22082 23656 23658    1
 22083 23659 23660    1
 22084 23659 23661    1
 22085 23662 23663    1
 22086 23662 23664    1
 22087 23665 23666    1
 22088 23665 23667    1
 22089 23668 23669    1
 22090 23668 23670    1
 22091 23671 23672    1
 22092 23671 23673    1
 22093 23674 23675    1
 22094 23674 23676    1
 22095 23677 23678    1
 22096 23677 23679    1
 22097 23680 23681    1
 22098 23680 23682    1
 22099 23683 23684    1
 22100 23683 23685    1
 22101 23686 23687    1
 22102 23686 23688    1
 22103 23689 23690    1
 22104 23689 23691    1
 22105 23692 23693    1
 22106 23692 23694    1
 22107 23695 23696    1
 22108 23695 23697    1
 22109 23698 23699    1
 22110 23698 23700    1
 22111 23701 23702    1
 22112 23701 23703    1
 22113 23704 23705    1
 22114 23704 23706    1
 22115 23707 23708    1
 22116 23707 23709    1
 22117 23710 23711    1
 22118 23710 23712    1
 22119 23713 23714    1
 22120 23713 23715    1
 22121 23716 23717    1
 22122 23716 23718    1
 22123 23719 23720    1
 22124 23719 23721    1
 22125 23722 23723    1
 22126 23722 23724    1
 22127 23725 23726    1
 22128 23725 23727    1
 22129 23728 23729    1
 22130 23728 23730    1
 22131 23731 23732    1
 22132 23731 23733    1
 22133 23734 23735    1
 22134 23734 23736    1
 22135 23737 23738    1
 22136 23737 23739    1
 22137 23740 23741    1
 22138 23740 23742    1
 22139 23743 23744    1
 22140 23743 23745    1
 22141 23746 23747    1
 22142 23746 23748    1
 22143 23749 23750    1
 22144 23749 23751    1
 22145 23752 23753    1
 22146 23752 23754    1
 22147 23755 23756    1
 22148 23755 23757    1
 22149 23758 23759    1
 22150 23758 23760    1
 22151 23761 23762    1
 22152 23761 23763    1
 22153 23764 23765    1
 22154 23764 23766    1
 22155 23767 23768    1
 22156 23767 23769    1
 22157 23770 23771    1
 22158 23770 23772    1
 22159 23773 23774    1
 22160 23773 23775    1
 22161 23776 23777    1
 22162 23776 23778    1
 22163 23779 23780    1
 22164 23779 23781    1
 22165 23782 23783    1
 22166 23782 23784    1
 22167 23785 23786    1
 22168 23785 23787    1
 22169 23788 23789    1
 22170 23788 23790    1
 22171 23791 23792    1
 22172 23791 23793    1
 22173 23794 23795    1
 22174 23794 23796    1
 22175 23797 23798    1
 22176 23797 23799    1
 22177 23800 23801    1
 22178 23800 23802    1
 22179 23803 23804    1
 22180 23803 23805    1
 22181 23806 23807    1
 22182 23806 23808    1
 22183 23809 23810    1
 22184 23809 23811    1
 22185 23812 23813    1
 22186 23812 23814    1
 22187 23815 23816    1
 22188 23815 23817    1
 22189 23818 23819    1
 22190 23818 23820    1
 22191 23821 23822    1
 22192 23821 23823    1
 22193 23824 23825    1
 22194 23824 23826    1
 22195 23827 23828    1
 22196 23827 23829    1
 22197 23830 23831    1
 22198 23830 23832    1
 22199 23833 23834    1
 22200 23833 23835    1
 22201 23836 23837    1
 22202 23836 23838    1
 22203 23839 23840    1
 22204 23839 23841    1
 22205 23842 23843    1
 22206 23842 23844    1
 22207 23845 23846    1
 22208 23845 23847    1
 22209 23848 23849    1
 22210 23848 23850    1
 22211 23851 23852    1
 22212 23851 23853    1
 22213 23854 23855    1
 22214 23854 23856    1
 22215 23857 23858    1
 22216 23857 23859    1
 22217 23860 23861    1
 22218 23860 23862    1
 22219 23863 23864    1
 22220 23863 23865    1
 22221 23866 23867    1
 22222 23866 23868    1
 22223 23869 23870    1
 22224 23869 23871    1
 22225 23872 23873    1
 22226 23872 23874    1
 22227 23875 23876    1
 22228 23875 23877    1
 22229 23878 23879    1
 22230 23878 23880    1
 22231 23881 23882    1
 22232 23881 23883    1
 22233 23884 23885    1
 22234 23884 23886    1
 22235 23887 23888    1
 22236 23887 23889    1
 22237 23890 23891    1
 22238 23890 23892    1
 22239 23893 23894    1
 22240 23893 23895    1
 22241 23896 23897    1
 22242 23896 23898    1
 22243 23899 23900    1
 22244 23899 23901    1
 22245 23902 23903    1
 22246 23902 23904    1
 22247 23905 23906    1
 22248 23905 23907    1
 22249 23908 23909    1
 22250 23908 23910    1
 22251 23911 23912    1
 22252 23911 23913    1
 22253 23914 23915    1
 22254 23914 23916    1
 22255 23917 23918    1
 22256 23917 23919    1
 22257 23920 23921    1
 22258 23920 23922    1
 22259 23923 23924    1
 22260 23923 23925    1
 22261 23926 23927    1
 22262 23926 23928    1
 22263 23929 23930    1
 22264 23929 23931    1
 22265 23932 23933    1
 22266 23932 23934    1
 22267 23935 23936    1
 22268 23935 23937    1
 22269 23938 23939    1
 22270 23938 23940    1
 22271 23941 23942    1
 22272 23941 23943    1
 22273 23944 23945    1
 22274 23944 23946    1
 22275 23947 23948    1
 22276 23947 23949    1
 22277 23950 23951    1
 22278 23950 23952    1
 22279 23953 23954    1
 22280 23953 23955    1
 22281 23956 23957    1
 22282 23956 23958    1
 22283 23959 23960    1
 22284 23959 23961    1
 22285 23962 23963    1
 22286 23962 23964    1
 22287 23965 23966    1
 22288 23965 23967    1
 22289 23968 23969    1
 22290 23968 23970    1
 22291 23971 23972    1
 22292 23971 23973    1
 22293 23974 23975    1
 22294 23974 23976    1
 22295 23977 23978    1
 22296 23977 23979    1
 22297 23980 23981    1
 22298 23980 23982    1
 22299 23983 23984    1
 22300 23983 23985    1
 22301 23986 23987    1
 22302 23986 23988    1
 22303 23989 23990    1
 22304 23989 23991    1
 22305 23992 23993    1
 22306 23992 23994    1
 22307 23995 23996    1
 22308 23995 23997    1
 22309 23998 23999    1
 22310 23998 24000    1
 22311 24001 24002    1
 22312 24001 24003    1
 22313 24004 24005    1
 22314 24004 24006    1
 22315 24007 24008    1
 22316 24007 24009    1
 22317 24010 24011    1
 22318 24010 24012    1
 22319 24013 24014    1
 22320 24013 24015    1
 22321 24016 24017    1
 22322 24016 24018    1
 22323 24019 24020    1
 22324 24019 24021    1
 22325 24022 24023    1
 22326 24022 24024    1
 22327 24025 24026    1
 22328 24025 24027    1
 22329 24028 24029    1
 22330 24028 24030    1
 22331 24031 24032    1
 22332 24031 24033    1
 22333 24034 24035    1
 22334 24034 24036    1
 22335 24037 24038    1
 22336 24037 24039    1
 22337 24040 24041    1
 22338 24040 24042    1
 22339 24043 24044    1
 22340 24043 24045    1
 22341 24046 24047    1
 22342 24046 24048    1
 22343 24049 24050    1
 22344 24049 24051    1
 22345 24052 24053    1
 22346 24052 24054    1
 22347 24055 24056    1
 22348 24055 24057    1
 22349 24058 24059    1
 22350 24058 24060    1
 22351 24061 24062    1
 22352 24061 24063    1
 22353 24064 24065    1
 22354 24064 24066    1
 22355 24067 24068    1
 22356 24067 24069    1
 22357 24070 24071    1
 22358 24070 24072    1
 22359 24073 24074    1
 22360 24073 24075    1
 22361 24076 24077    1
 22362 24076 24078    1
 22363 24079 24080    1
 22364 24079 24081    1
 22365 24082 24083    1
 22366 24082 24084    1
 22367 24085 24086    1
 22368 24085 24087    1
 22369 24088 24089    1
 22370 24088 24090    1
 22371 24091 24092    1
 22372 24091 24093    1
 22373 24094 24095    1
 22374 24094 24096    1
 22375 24097 24098    1
 22376 24097 24099    1
 22377 24100 24101    1
 22378 24100 24102    1
 22379 24103 24104    1
 22380 24103 24105    1
 22381 24106 24107    1
 22382 24106 24108    1
 22383 24109 24110    1
 22384 24109 24111    1
 22385 24112 24113    1
 22386 24112 24114    1
 22387 24115 24116    1
 22388 24115 24117    1
 22389 24118 24119    1
 22390 24118 24120    1
 22391 24121 24122    1
 22392 24121 24123    1
 22393 24124 24125    1
 22394 24124 24126    1
 22395 24127 24128    1
 22396 24127 24129    1
 22397 24130 24131    1
 22398 24130 24132    1
 22399 24133 24134    1
 22400 24133 24135    1
 22401 24136 24137    1
 22402 24136 24138    1
 22403 24139 24140    1
 22404 24139 24141    1
 22405 24142 24143    1
 22406 24142 24144    1
 22407 24145 24146    1
 22408 24145 24147    1
 22409 24148 24149    1
 22410 24148 24150    1
 22411 24151 24152    1
 22412 24151 24153    1
 22413 24154 24155    1
 22414 24154 24156    1
 22415 24157 24158    1
 22416 24157 24159    1
 22417 24160 24161    1
 22418 24160 24162    1
 22419 24163 24164    1
 22420 24163 24165    1
 22421 24166 24167    1
 22422 24166 24168    1
 22423 24169 24170    1
 22424 24169 24171    1
 22425 24172 24173    1
 22426 24172 24174    1
 22427 24175 24176    1
 22428 24175 24177    1
 22429 24178 24179    1
 22430 24178 24180    1
 22431 24181 24182    1
 22432 24181 24183    1
 22433 24184 24185    1
 22434 24184 24186    1
 22435 24187 24188    1
 22436 24187 24189    1
 22437 24190 24191    1
 22438 24190 24192    1
 22439 24193 24194    1
 22440 24193 24195    1
 22441 24196 24197    1
 22442 24196 24198    1
 22443 24199 24200    1
 22444 24199 24201    1
 22445 24202 24203    1
 22446 24202 24204    1
 22447 24205 24206    1
 22448 24205 24207    1
 22449 24208 24209    1
 22450 24208 24210    1
 22451 24211 24212    1
 22452 24211 24213    1
 22453 24214 24215    1
 22454 24214 24216    1
 22455 24217 24218    1
 22456 24217 24219    1
 22457 24220 24221    1
 22458 24220 24222    1
 22459 24223 24224    1
 22460 24223 24225    1
 22461 24226 24227    1
 22462 24226 24228    1
 22463 24229 24230    1
 22464 24229 24231    1
 22465 24232 24233    1
 22466 24232 24234    1
 22467 24235 24236    1
 22468 24235 24237    1
 22469 24238 24239    1
 22470 24238 24240    1
 22471 24241 24242    1
 22472 24241 24243    1
 22473 24244 24245    1
 22474 24244 24246    1
 22475 24247 24248    1
 22476 24247 24249    1
 22477 24250 24251    1
 22478 24250 24252    1
 22479 24253 24254    1
 22480 24253 24255    1
 22481 24256 24257    1
 22482 24256 24258    1
 22483 24259 24260    1
 22484 24259 24261    1
 22485 24262 24263    1
 22486 24262 24264    1
 22487 24265 24266    1
 22488 24265 24267    1
 22489 24268 24269    1
 22490 24268 24270    1
 22491 24271 24272    1
 22492 24271 24273    1
 22493 24274 24275    1
 22494 24274 24276    1
 22495 24277 24278    1
 22496 24277 24279    1
 22497 24280 24281    1
 22498 24280 24282    1
 22499 24283 24284    1
 22500 24283 24285    1
 22501 24286 24287    1
 22502 24286 24288    1
 22503 24289 24290    1
 22504 24289 24291    1
 22505 24292 24293    1
 22506 24292 24294    1
 22507 24295 24296    1
 22508 24295 24297    1
 22509 24298 24299    1
 22510 24298 24300    1
 22511 24301 24302    1
 22512 24301 24303    1
 22513 24304 24305    1
 22514 24304 24306    1
 22515 24307 24308    1
 22516 24307 24309    1
 22517 24310 24311    1
 22518 24310 24312    1
 22519 24313 24314    1
 22520 24313 24315    1
 22521 24316 24317    1
 22522 24316 24318    1
 22523 24319 24320    1
 22524 24319 24321    1
 22525 24322 24323    1
 22526 24322 24324    1
 22527 24325 24326    1
 22528 24325 24327    1
 22529 24328 24329    1
 22530 24328 24330    1
 22531 24331 24332    1
 22532 24331 24333    1
 22533 24334 24335    1
 22534 24334 24336    1
 22535 24337 24338    1
 22536 24337 24339    1
 22537 24340 24341    1
 22538 24340 24342    1
 22539 24343 24344    1
 22540 24343 24345    1
 22541 24346 24347    1
 22542 24346 24348    1
 22543 24349 24350    1
 22544 24349 24351    1
 22545 24352 24353    1
 22546 24352 24354    1
 22547 24355 24356    1
 22548 24355 24357    1
 22549 24358 24359    1
 22550 24358 24360    1
 22551 24361 24362    1
 22552 24361 24363    1
 22553 24364 24365    1
 22554 24364 24366    1
 22555 24367 24368    1
 22556 24367 24369    1
 22557 24370 24371    1
 22558 24370 24372    1
 22559 24373 24374    1
 22560 24373 24375    1
 22561 24376 24377    1
 22562 24376 24378    1
 22563 24379 24380    1
 22564 24379 24381    1
 22565 24382 24383    1
 22566 24382 24384    1
 22567 24385 24386    1
 22568 24385 24387    1
 22569 24388 24389    1
 22570 24388 24390    1
 22571 24391 24392    1
 22572 24391 24393    1
 22573 24394 24395    1
 22574 24394 24396    1
 22575 24397 24398    1
 22576 24397 24399    1
 22577 24400 24401    1
 22578 24400 24402    1
 22579 24403 24404    1
 22580 24403 24405    1
 22581 24406 24407    1
 22582 24406 24408    1
 22583 24409 24410    1
 22584 24409 24411    1
 22585 24412 24413    1
 22586 24412 24414    1
 22587 24415 24416    1
 22588 24415 24417    1
 22589 24418 24419    1
 22590 24418 24420    1
 22591 24421 24422    1
 22592 24421 24423    1
 22593 24424 24425    1
 22594 24424 24426    1
 22595 24427 24428    1
 22596 24427 24429    1
 22597 24430 24431    1
 22598 24430 24432    1
 22599 24433 24434    1
 22600 24433 24435    1
 22601 24436 24437    1
 22602 24436 24438    1
 22603 24439 24440    1
 22604 24439 24441    1
 22605 24442 24443    1
 22606 24442 24444    1
 22607 24445 24446    1
 22608 24445 24447    1
 22609 24448 24449    1
 22610 24448 24450    1
 22611 24451 24452    1
 22612 24451 24453    1
 22613 24454 24455    1
 22614 24454 24456    1
 22615 24457 24458    1
 22616 24457 24459    1
 22617 24460 24461    1
 22618 24460 24462    1
 22619 24463 24464    1
 22620 24463 24465    1
 22621 24466 24467    1
 22622 24466 24468    1
 22623 24469 24470    1
 22624 24469 24471    1
 22625 24472 24473    1
 22626 24472 24474    1
 22627 24475 24476    1
 22628 24475 24477    1
 22629 24478 24479    1
 22630 24478 24480    1
 22631 24481 24482    1
 22632 24481 24483    1
 22633 24484 24485    1
 22634 24484 24486    1
 22635 24487 24488    1
 22636 24487 24489    1
 22637 24490 24491    1
 22638 24490 24492    1
 22639 24493 24494    1
 22640 24493 24495    1
 22641 24496 24497    1
 22642 24496 24498    1
 22643 24499 24500    1
 22644 24499 24501    1
 22645 24502 24503    1
 22646 24502 24504    1
 22647 24505 24506    1
 22648 24505 24507    1
 22649 24508 24509    1
 22650 24508 24510    1
 22651 24511 24512    1
 22652 24511 24513    1
 22653 24514 24515    1
 22654 24514 24516    1
 22655 24517 24518    1
 22656 24517 24519    1
 22657 24520 24521    1
 22658 24520 24522    1
 22659 24523 24524    1
 22660 24523 24525    1
 22661 24526 24527    1
 22662 24526 24528    1
 22663 24529 24530    1
 22664 24529 24531    1
 22665 24532 24533    1
 22666 24532 24534    1
 22667 24535 24536    1
 22668 24535 24537    1
 22669 24538 24539    1
 22670 24538 24540    1
 22671 24541 24542    1
 22672 24541 24543    1
 22673 24544 24545    1
 22674 24544 24546    1
 22675 24547 24548    1
 22676 24547 24549    1
 22677 24550 24551    1
 22678 24550 24552    1
 22679 24553 24554    1
 22680 24553 24555    1
 22681 24556 24557    1
 22682 24556 24558    1
 22683 24559 24560    1
 22684 24559 24561    1
 22685 24562 24563    1
 22686 24562 24564    1
 22687 24565 24566    1
 22688 24565 24567    1
 22689 24568 24569    1
 22690 24568 24570    1
 22691 24571 24572    1
 22692 24571 24573    1
 22693 24574 24575    1
 22694 24574 24576    1
 22695 24577 24578    1
 22696 24577 24579    1
 22697 24580 24581    1
 22698 24580 24582    1
 22699 24583 24584    1
 22700 24583 24585    1
 22701 24586 24587    1
 22702 24586 24588    1
 22703 24589 24590    1
 22704 24589 24591    1
 22705 24592 24593    1
 22706 24592 24594    1
 22707 24595 24596    1
 22708 24595 24597    1
 22709 24598 24599    1
 22710 24598 24600    1
 22711 24601 24602    1
 22712 24601 24603    1
 22713 24604 24605    1
 22714 24604 24606    1
 22715 24607 24608    1
 22716 24607 24609    1
 22717 24610 24611    1
 22718 24610 24612    1
 22719 24613 24614    1
 22720 24613 24615    1
 22721 24616 24617    1
 22722 24616 24618    1
 22723 24619 24620    1
 22724 24619 24621    1
 22725 24622 24623    1
 22726 24622 24624    1
 22727 24625 24626    1
 22728 24625 24627    1
 22729 24628 24629    1
 22730 24628 24630    1
 22731 24631 24632    1
 22732 24631 24633    1
 22733 24634 24635    1
 22734 24634 24636    1
 22735 24637 24638    1
 22736 24637 24639    1
 22737 24640 24641    1
 22738 24640 24642    1
 22739 24643 24644    1
 22740 24643 24645    1
 22741 24646 24647    1
 22742 24646 24648    1
 22743 24649 24650    1
 22744 24649 24651    1
 22745 24652 24653    1
 22746 24652 24654    1
 22747 24655 24656    1
 22748 24655 24657    1
 22749 24658 24659    1
 22750 24658 24660    1
 22751 24661 24662    1
 22752 24661 24663    1
 22753 24664 24665    1
 22754 24664 24666    1
 22755 24667 24668    1
 22756 24667 24669    1
 22757 24670 24671    1
 22758 24670 24672    1
 22759 24673 24674    1
 22760 24673 24675    1
 22761 24676 24677    1
 22762 24676 24678    1
 22763 24679 24680    1
 22764 24679 24681    1
 22765 24682 24683    1
 22766 24682 24684    1
 22767 24685 24686    1
 22768 24685 24687    1
 22769 24688 24689    1
 22770 24688 24690    1
 22771 24691 24692    1
 22772 24691 24693    1
 22773 24694 24695    1
 22774 24694 24696    1
 22775 24697 24698    1
 22776 24697 24699    1
 22777 24700 24701    1
 22778 24700 24702    1
 22779 24703 24704    1
 22780 24703 24705    1
 22781 24706 24707    1
 22782 24706 24708    1
 22783 24709 24710    1
 22784 24709 24711    1
 22785 24712 24713    1
 22786 24712 24714    1
 22787 24715 24716    1
 22788 24715 24717    1
 22789 24718 24719    1
 22790 24718 24720    1
 22791 24721 24722    1
 22792 24721 24723    1
 22793 24724 24725    1
 22794 24724 24726    1
 22795 24727 24728    1
 22796 24727 24729    1
 22797 24730 24731    1
 22798 24730 24732    1
 22799 24733 24734    1
 22800 24733 24735    1
 22801 24736 24737    1
 22802 24736 24738    1
 22803 24739 24740    1
 22804 24739 24741    1
 22805 24742 24743    1
 22806 24742 24744    1
 22807 24745 24746    1
 22808 24745 24747    1
 22809 24748 24749    1
 22810 24748 24750    1
 22811 24751 24752    1
 22812 24751 24753    1
 22813 24754 24755    1
 22814 24754 24756    1
 22815 24757 24758    1
 22816 24757 24759    1
 22817 24760 24761    1
 22818 24760 24762    1
 22819 24763 24764    1
 22820 24763 24765    1
 22821 24766 24767    1
 22822 24766 24768    1
 22823 24769 24770    1
 22824 24769 24771    1
 22825 24772 24773    1
 22826 24772 24774    1
 22827 24775 24776    1
 22828 24775 24777    1
 22829 24778 24779    1
 22830 24778 24780    1
 22831 24781 24782    1
 22832 24781 24783    1
 22833 24784 24785    1
 22834 24784 24786    1
 22835 24787 24788    1
 22836 24787 24789    1
 22837 24790 24791    1
 22838 24790 24792    1
 22839 24793 24794    1
 22840 24793 24795    1
 22841 24796 24797    1
 22842 24796 24798    1
 22843 24799 24800    1
 22844 24799 24801    1
 22845 24802 24803    1
 22846 24802 24804    1
 22847 24805 24806    1
 22848 24805 24807    1
 22849 24808 24809    1
 22850 24808 24810    1
 22851 24811 24812    1
 22852 24811 24813    1
 22853 24814 24815    1
 22854 24814 24816    1
 22855 24817 24818    1
 22856 24817 24819    1
 22857 24820 24821    1
 22858 24820 24822    1
 22859 24823 24824    1
 22860 24823 24825    1
 22861 24826 24827    1
 22862 24826 24828    1
 22863 24829 24830    1
 22864 24829 24831    1
 22865 24832 24833    1
 22866 24832 24834    1
 22867 24835 24836    1
 22868 24835 24837    1
 22869 24838 24839    1
 22870 24838 24840    1
 22871 24841 24842    1
 22872 24841 24843    1
 22873 24844 24845    1
 22874 24844 24846    1
 22875 24847 24848    1
 22876 24847 24849    1
 22877 24850 24851    1
 22878 24850 24852    1
 22879 24853 24854    1
 22880 24853 24855    1
 22881 24856 24857    1
 22882 24856 24858    1
 22883 24859 24860    1
 22884 24859 24861    1
 22885 24862 24863    1
 22886 24862 24864    1
 22887 24865 24866    1
 22888 24865 24867    1
 22889 24868 24869    1
 22890 24868 24870    1
 22891 24871 24872    1
 22892 24871 24873    1
 22893 24874 24875    1
 22894 24874 24876    1
 22895 24877 24878    1
 22896 24877 24879    1
 22897 24880 24881    1
 22898 24880 24882    1
 22899 24883 24884    1
 22900 24883 24885    1
 22901 24886 24887    1
 22902 24886 24888    1
 22903 24889 24890    1
 22904 24889 24891    1
 22905 24892 24893    1
 22906 24892 24894    1
 22907 24895 24896    1
 22908 24895 24897    1
 22909 24898 24899    1
 22910 24898 24900    1
 22911 24901 24902    1
 22912 24901 24903    1
 22913 24904 24905    1
 22914 24904 24906    1
 22915 24907 24908    1
 22916 24907 24909    1
 22917 24910 24911    1
 22918 24910 24912    1
 22919 24913 24914    1
 22920 24913 24915    1
 22921 24916 24917    1
 22922 24916 24918    1
 22923 24919 24920    1
 22924 24919 24921    1
 22925 24922 24923    1
 22926 24922 24924    1
 22927 24925 24926    1
 22928 24925 24927    1
 22929 24928 24929    1
 22930 24928 24930    1
 22931 24931 24932    1
 22932 24931 24933    1
 22933 24934 24935    1
 22934 24934 24936    1
 22935 24937 24938    1
 22936 24937 24939    1
 22937 24940 24941    1
 22938 24940 24942    1
 22939 24943 24944    1
 22940 24943 24945    1
 22941 24946 24947    1
 22942 24946 24948    1
 22943 24949 24950    1
 22944 24949 24951    1
 22945 24952 24953    1
 22946 24952 24954    1
 22947 24955 24956    1
 22948 24955 24957    1
 22949 24958 24959    1
 22950 24958 24960    1
 22951 24961 24962    1
 22952 24961 24963    1
 22953 24964 24965    1
 22954 24964 24966    1
 22955 24967 24968    1
 22956 24967 24969    1
 22957 24970 24971    1
 22958 24970 24972    1
 22959 24973 24974    1
 22960 24973 24975    1
 22961 24976 24977    1
 22962 24976 24978    1
 22963 24979 24980    1
 22964 24979 24981    1
 22965 24982 24983    1
 22966 24982 24984    1
 22967 24985 24986    1
 22968 24985 24987    1
 22969 24988 24989    1
 22970 24988 24990    1
 22971 24991 24992    1
 22972 24991 24993    1
 22973 24994 24995    1
 22974 24994 24996    1
 22975 24997 24998    1
 22976 24997 24999    1
 22977 25000 25001    1
 22978 25000 25002    1
 22979 25003 25004    1
 22980 25003 25005    1
 22981 25006 25007    1
 22982 25006 25008    1
 22983 25009 25010    1
 22984 25009 25011    1
 22985 25012 25013    1
 22986 25012 25014    1
 22987 25015 25016    1
 22988 25015 25017    1
 22989 25018 25019    1
 22990 25018 25020    1
 22991 25021 25022    1
 22992 25021 25023    1
 22993 25024 25025    1
 22994 25024 25026    1
 22995 25027 25028    1
 22996 25027 25029    1
 22997 25030 25031    1
 22998 25030 25032    1
 22999 25033 25034    1
 23000 25033 25035    1
 23001 25036 25037    1
 23002 25036 25038    1
 23003 25039 25040    1
 23004 25039 25041    1
 23005 25042 25043    1
 23006 25042 25044    1
 23007 25045 25046    1
 23008 25045 25047    1
 23009 25048 25049    1
 23010 25048 25050    1
 23011 25051 25052    1
 23012 25051 25053    1
 23013 25054 25055    1
 23014 25054 25056    1
 23015 25057 25058    1
 23016 25057 25059    1
 23017 25060 25061    1
 23018 25060 25062    1
 23019 25063 25064    1
 23020 25063 25065    1
 23021 25066 25067    1
 23022 25066 25068    1
 23023 25069 25070    1
 23024 25069 25071    1
 23025 25072 25073    1
 23026 25072 25074    1
 23027 25075 25076    1
 23028 25075 25077    1
 23029 25078 25079    1
 23030 25078 25080    1
 23031 25081 25082    1
 23032 25081 25083    1
 23033 25084 25085    1
 23034 25084 25086    1
 23035 25087 25088    1
 23036 25087 25089    1
 23037 25090 25091    1
 23038 25090 25092    1
 23039 25093 25094    1
 23040 25093 25095    1
 23041 25096 25097    1
 23042 25096 25098    1
 23043 25099 25100    1
 23044 25099 25101    1
 23045 25102 25103    1
 23046 25102 25104    1
 23047 25105 25106    1
 23048 25105 25107    1
 23049 25108 25109    1
 23050 25108 25110    1
 23051 25111 25112    1
 23052 25111 25113    1
 23053 25114 25115    1
 23054 25114 25116    1
 23055 25117 25118    1
 23056 25117 25119    1
 23057 25120 25121    1
 23058 25120 25122    1
 23059 25123 25124    1
 23060 25123 25125    1
 23061 25126 25127    1
 23062 25126 25128    1
 23063 25129 25130    1
 23064 25129 25131    1
 23065 25132 25133    1
 23066 25132 25134    1
 23067 25135 25136    1
 23068 25135 25137    1
 23069 25138 25139    1
 23070 25138 25140    1
 23071 25141 25142    1
 23072 25141 25143    1
 23073 25144 25145    1
 23074 25144 25146    1
 23075 25147 25148    1
 23076 25147 25149    1
 23077 25150 25151    1
 23078 25150 25152    1
 23079 25153 25154    1
 23080 25153 25155    1
 23081 25156 25157    1
 23082 25156 25158    1
 23083 25159 25160    1
 23084 25159 25161    1
 23085 25162 25163    1
 23086 25162 25164    1
 23087 25165 25166    1
 23088 25165 25167    1
 23089 25168 25169    1
 23090 25168 25170    1
 23091 25171 25172    1
 23092 25171 25173    1
 23093 25174 25175    1
 23094 25174 25176    1
 23095 25177 25178    1
 23096 25177 25179    1
 23097 25180 25181    1
 23098 25180 25182    1
 23099 25183 25184    1
 23100 25183 25185    1
 23101 25186 25187    1
 23102 25186 25188    1
 23103 25189 25190    1
 23104 25189 25191    1
 23105 25192 25193    1
 23106 25192 25194    1
 23107 25195 25196    1
 23108 25195 25197    1
 23109 25198 25199    1
 23110 25198 25200    1
 23111 25201 25202    1
 23112 25201 25203    1
 23113 25204 25205    1
 23114 25204 25206    1
 23115 25207 25208    1
 23116 25207 25209    1
 23117 25210 25211    1
 23118 25210 25212    1
 23119 25213 25214    1
 23120 25213 25215    1
 23121 25216 25217    1
 23122 25216 25218    1
 23123 25219 25220    1
 23124 25219 25221    1
 23125 25222 25223    1
 23126 25222 25224    1
 23127 25225 25226    1
 23128 25225 25227    1
 23129 25228 25229    1
 23130 25228 25230    1
 23131 25231 25232    1
 23132 25231 25233    1
 23133 25234 25235    1
 23134 25234 25236    1
 23135 25237 25238    1
 23136 25237 25239    1
 23137 25240 25241    1
 23138 25240 25242    1
 23139 25243 25244    1
 23140 25243 25245    1
 23141 25246 25247    1
 23142 25246 25248    1
 23143 25249 25250    1
 23144 25249 25251    1
 23145 25252 25253    1
 23146 25252 25254    1
 23147 25255 25256    1
 23148 25255 25257    1
 23149 25258 25259    1
 23150 25258 25260    1
 23151 25261 25262    1
 23152 25261 25263    1
 23153 25264 25265    1
 23154 25264 25266    1
 23155 25267 25268    1
 23156 25267 25269    1
 23157 25270 25271    1
 23158 25270 25272    1
 23159 25273 25274    1
 23160 25273 25275    1
 23161 25276 25277    1
 23162 25276 25278    1
 23163 25279 25280    1
 23164 25279 25281    1
 23165 25282 25283    1
 23166 25282 25284    1
 23167 25285 25286    1
 23168 25285 25287    1
 23169 25288 25289    1
 23170 25288 25290    1
 23171 25291 25292    1
 23172 25291 25293    1
 23173 25294 25295    1
 23174 25294 25296    1
 23175 25297 25298    1
 23176 25297 25299    1
 23177 25300 25301    1
 23178 25300 25302    1
 23179 25303 25304    1
 23180 25303 25305    1
 23181 25306 25307    1
 23182 25306 25308    1
 23183 25309 25310    1
 23184 25309 25311    1
 23185 25312 25313    1
 23186 25312 25314    1
 23187 25315 25316    1
 23188 25315 25317    1
 23189 25318 25319    1
 23190 25318 25320    1
 23191 25321 25322    1
 23192 25321 25323    1
 23193 25324 25325    1
 23194 25324 25326    1
 23195 25327 25328    1
 23196 25327 25329    1
 23197 25330 25331    1
 23198 25330 25332    1
 23199 25333 25334    1
 23200 25333 25335    1
 23201 25336 25337    1
 23202 25336 25338    1
 23203 25339 25340    1
 23204 25339 25341    1
 23205 25342 25343    1
 23206 25342 25344    1
 23207 25345 25346    1
 23208 25345 25347    1
 23209 25348 25349    1
 23210 25348 25350    1
 23211 25351 25352    1
 23212 25351 25353    1
 23213 25354 25355    1
 23214 25354 25356    1
 23215 25357 25358    1
 23216 25357 25359    1
 23217 25360 25361    1
 23218 25360 25362    1
 23219 25363 25364    1
 23220 25363 25365    1
 23221 25366 25367    1
 23222 25366 25368    1
 23223 25369 25370    1
 23224 25369 25371    1
 23225 25372 25373    1
 23226 25372 25374    1
 23227 25375 25376    1
 23228 25375 25377    1
 23229 25378 25379    1
 23230 25378 25380    1
 23231 25381 25382    1
 23232 25381 25383    1
 23233 25384 25385    1
 23234 25384 25386    1
 23235 25387 25388    1
 23236 25387 25389    1
 23237 25390 25391    1
 23238 25390 25392    1
 23239 25393 25394    1
 23240 25393 25395    1
 23241 25396 25397    1
 23242 25396 25398    1
 23243 25399 25400    1
 23244 25399 25401    1
 23245 25402 25403    1
 23246 25402 25404    1
 23247 25405 25406    1
 23248 25405 25407    1
 23249 25408 25409    1
 23250 25408 25410    1
 23251 25411 25412    1
 23252 25411 25413    1
 23253 25414 25415    1
 23254 25414 25416    1
 23255 25417 25418    1
 23256 25417 25419    1
 23257 25420 25421    1
 23258 25420 25422    1
 23259 25423 25424    1
 23260 25423 25425    1
 23261 25426 25427    1
 23262 25426 25428    1
 23263 25429 25430    1
 23264 25429 25431    1
 23265 25432 25433    1
 23266 25432 25434    1
 23267 25435 25436    1
 23268 25435 25437    1
 23269 25438 25439    1
 23270 25438 25440    1
 23271 25441 25442    1
 23272 25441 25443    1
 23273 25444 25445    1
 23274 25444 25446    1
 23275 25447 25448    1
 23276 25447 25449    1
 23277 25450 25451    1
 23278 25450 25452    1
 23279 25453 25454    1
 23280 25453 25455    1
 23281 25456 25457    1
 23282 25456 25458    1
 23283 25459 25460    1
 23284 25459 25461    1
 23285 25462 25463    1
 23286 25462 25464    1
 23287 25465 25466    1
 23288 25465 25467    1
 23289 25468 25469    1
 23290 25468 25470    1
 23291 25471 25472    1
 23292 25471 25473    1
 23293 25474 25475    1
 23294 25474 25476    1
 23295 25477 25478    1
 23296 25477 25479    1
 23297 25480 25481    1
 23298 25480 25482    1
 23299 25483 25484    1
 23300 25483 25485    1
 23301 25486 25487    1
 23302 25486 25488    1
 23303 25489 25490    1
 23304 25489 25491    1
 23305 25492 25493    1
 23306 25492 25494    1
 23307 25495 25496    1
 23308 25495 25497    1
 23309 25498 25499    1
 23310 25498 25500    1
 23311 25501 25502    1
 23312 25501 25503    1
 23313 25504 25505    1
 23314 25504 25506    1
 23315 25507 25508    1
 23316 25507 25509    1
 23317 25510 25511    1
 23318 25510 25512    1
 23319 25513 25514    1
 23320 25513 25515    1
 23321 25516 25517    1
 23322 25516 25518    1
 23323 25519 25520    1
 23324 25519 25521    1
 23325 25522 25523    1
 23326 25522 25524    1
 23327 25525 25526    1
 23328 25525 25527    1
 23329 25528 25529    1
 23330 25528 25530    1
 23331 25531 25532    1
 23332 25531 25533    1
 23333 25534 25535    1
 23334 25534 25536    1
 23335 25537 25538    1
 23336 25537 25539    1
 23337 25540 25541    1
 23338 25540 25542    1
 23339 25543 25544    1
 23340 25543 25545    1
 23341 25546 25547    1
 23342 25546 25548    1
 23343 25549 25550    1
 23344 25549 25551    1
 23345 25552 25553    1
 23346 25552 25554    1
 23347 25555 25556    1
 23348 25555 25557    1
 23349 25558 25559    1
 23350 25558 25560    1
 23351 25561 25562    1
 23352 25561 25563    1
 23353 25564 25565    1
 23354 25564 25566    1
 23355 25567 25568    1
 23356 25567 25569    1
 23357 25570 25571    1
 23358 25570 25572    1
 23359 25573 25574    1
 23360 25573 25575    1
 23361 25576 25577    1
 23362 25576 25578    1
 23363 25579 25580    1
 23364 25579 25581    1
 23365 25582 25583    1
 23366 25582 25584    1
 23367 25585 25586    1
 23368 25585 25587    1
 23369 25588 25589    1
 23370 25588 25590    1
 23371 25591 25592    1
 23372 25591 25593    1
 23373 25594 25595    1
 23374 25594 25596    1
 23375 25597 25598    1
 23376 25597 25599    1
 23377 25600 25601    1
 23378 25600 25602    1
 23379 25603 25604    1
 23380 25603 25605    1
 23381 25606 25607    1
 23382 25606 25608    1
 23383 25609 25610    1
 23384 25609 25611    1
 23385 25612 25613    1
 23386 25612 25614    1
 23387 25615 25616    1
 23388 25615 25617    1
 23389 25618 25619    1
 23390 25618 25620    1
 23391 25621 25622    1
 23392 25621 25623    1
 23393 25624 25625    1
 23394 25624 25626    1
 23395 25627 25628    1
 23396 25627 25629    1
 23397 25630 25631    1
 23398 25630 25632    1
 23399 25633 25634    1
 23400 25633 25635    1
 23401 25636 25637    1
 23402 25636 25638    1
 23403 25639 25640    1
 23404 25639 25641    1
 23405 25642 25643    1
 23406 25642 25644    1
 23407 25645 25646    1
 23408 25645 25647    1
 23409 25648 25649    1
 23410 25648 25650    1
 23411 25651 25652    1
 23412 25651 25653    1
 23413 25654 25655    1
 23414 25654 25656    1
 23415 25657 25658    1
 23416 25657 25659    1
 23417 25660 25661    1
 23418 25660 25662    1
 23419 25663 25664    1
 23420 25663 25665    1
 23421 25666 25667    1
 23422 25666 25668    1
 23423 25669 25670    1
 23424 25669 25671    1
 23425 25672 25673    1
 23426 25672 25674    1
 23427 25675 25676    1
 23428 25675 25677    1
 23429 25678 25679    1
 23430 25678 25680    1
 23431 25681 25682    1
 23432 25681 25683    1
 23433 25684 25685    1
 23434 25684 25686    1
 23435 25687 25688    1
 23436 25687 25689    1
 23437 25690 25691    1
 23438 25690 25692    1
 23439 25693 25694    1
 23440 25693 25695    1
 23441 25696 25697    1
 23442 25696 25698    1
 23443 25699 25700    1
 23444 25699 25701    1
 23445 25702 25703    1
 23446 25702 25704    1
 23447 25705 25706    1
 23448 25705 25707    1
 23449 25708 25709    1
 23450 25708 25710    1
 23451 25711 25712    1
 23452 25711 25713    1
 23453 25714 25715    1
 23454 25714 25716    1
 23455 25717 25718    1
 23456 25717 25719    1
 23457 25720 25721    1
 23458 25720 25722    1
 23459 25723 25724    1
 23460 25723 25725    1
 23461 25726 25727    1
 23462 25726 25728    1
 23463 25729 25730    1
 23464 25729 25731    1
 23465 25732 25733    1
 23466 25732 25734    1
 23467 25735 25736    1
 23468 25735 25737    1
 23469 25738 25739    1
 23470 25738 25740    1
 23471 25741 25742    1
 23472 25741 25743    1
 23473 25744 25745    1
 23474 25744 25746    1
 23475 25747 25748    1
 23476 25747 25749    1
 23477 25750 25751    1
 23478 25750 25752    1
 23479 25753 25754    1
 23480 25753 25755    1
 23481 25756 25757    1
 23482 25756 25758    1
 23483 25759 25760    1
 23484 25759 25761    1
 23485 25762 25763    1
 23486 25762 25764    1
 23487 25765 25766    1
 23488 25765 25767    1
 23489 25768 25769    1
 23490 25768 25770    1
 23491 25771 25772    1
 23492 25771 25773    1
 23493 25774 25775    1
 23494 25774 25776    1
 23495 25777 25778    1
 23496 25777 25779    1
 23497 25780 25781    1
 23498 25780 25782    1
 23499 25783 25784    1
 23500 25783 25785    1
 23501 25786 25787    1
 23502 25786 25788    1
 23503 25789 25790    1
 23504 25789 25791    1
 23505 25792 25793    1
 23506 25792 25794    1
 23507 25795 25796    1
 23508 25795 25797    1
 23509 25798 25799    1
 23510 25798 25800    1
 23511 25801 25802    1
 23512 25801 25803    1
 23513 25804 25805    1
 23514 25804 25806    1
 23515 25807 25808    1
 23516 25807 25809    1
 23517 25810 25811    1
 23518 25810 25812    1
 23519 25813 25814    1
 23520 25813 25815    1
 23521 25816 25817    1
 23522 25816 25818    1
 23523 25819 25820    1
 23524 25819 25821    1
 23525 25822 25823    1
 23526 25822 25824    1
 23527 25825 25826    1
 23528 25825 25827    1
 23529 25828 25829    1
 23530 25828 25830    1
 23531 25831 25832    1
 23532 25831 25833    1
 23533 25834 25835    1
 23534 25834 25836    1
 23535 25837 25838    1
 23536 25837 25839    1
 23537 25840 25841    1
 23538 25840 25842    1
 23539 25843 25844    1
 23540 25843 25845    1
 23541 25846 25847    1
 23542 25846 25848    1
 23543 25849 25850    1
 23544 25849 25851    1
 23545 25852 25853    1
 23546 25852 25854    1
 23547 25855 25856    1
 23548 25855 25857    1
 23549 25858 25859    1
 23550 25858 25860    1
 23551 25861 25862    1
 23552 25861 25863    1
 23553 25864 25865    1
 23554 25864 25866    1
 23555 25867 25868    1
 23556 25867 25869    1
 23557 25870 25871    1
 23558 25870 25872    1
 23559 25873 25874    1
 23560 25873 25875    1
 23561 25876 25877    1
 23562 25876 25878    1
 23563 25879 25880    1
 23564 25879 25881    1
 23565 25882 25883    1
 23566 25882 25884    1
 23567 25885 25886    1
 23568 25885 25887    1
 23569 25888 25889    1
 23570 25888 25890    1
 23571 25891 25892    1
 23572 25891 25893    1
 23573 25894 25895    1
 23574 25894 25896    1
 23575 25897 25898    1
 23576 25897 25899    1
 23577 25900 25901    1
 23578 25900 25902    1
 23579 25903 25904    1
 23580 25903 25905    1
 23581 25906 25907    1
 23582 25906 25908    1
 23583 25909 25910    1
 23584 25909 25911    1
 23585 25912 25913    1
 23586 25912 25914    1
 23587 25915 25916    1
 23588 25915 25917    1
 23589 25918 25919    1
 23590 25918 25920    1
 23591 25921 25922    1
 23592 25921 25923    1
 23593 25924 25925    1
 23594 25924 25926    1
 23595 25927 25928    1
 23596 25927 25929    1
 23597 25930 25931    1
 23598 25930 25932    1
 23599 25933 25934    1
 23600 25933 25935    1
 23601 25936 25937    1
 23602 25936 25938    1
 23603 25939 25940    1
 23604 25939 25941    1
 23605 25942 25943    1
 23606 25942 25944    1
 23607 25945 25946    1
 23608 25945 25947    1
 23609 25948 25949    1
 23610 25948 25950    1
 23611 25951 25952    1
 23612 25951 25953    1
 23613 25954 25955    1
 23614 25954 25956    1
 23615 25957 25958    1
 23616 25957 25959    1
 23617 25960 25961    1
 23618 25960 25962    1
 23619 25963 25964    1
 23620 25963 25965    1
 23621 25966 25967    1
 23622 25966 25968    1
 23623 25969 25970    1
 23624 25969 25971    1
 23625 25972 25973    1
 23626 25972 25974    1
 23627 25975 25976    1
 23628 25975 25977    1
 23629 25978 25979    1
 23630 25978 25980    1
 23631 25981 25982    1
 23632 25981 25983    1
 23633 25984 25985    1
 23634 25984 25986    1
 23635 25987 25988    1
 23636 25987 25989    1
 23637 25990 25991    1
 23638 25990 25992    1
 23639 25993 25994    1
 23640 25993 25995    1
 23641 25996 25997    1
 23642 25996 25998    1
 23643 25999 26000    1
 23644 25999 26001    1
 23645 26002 26003    1
 23646 26002 26004    1
 23647 26005 26006    1
 23648 26005 26007    1
 23649 26008 26009    1
 23650 26008 26010    1
 23651 26011 26012    1
 23652 26011 26013    1
 23653 26014 26015    1
 23654 26014 26016    1
 23655 26017 26018    1
 23656 26017 26019    1
 23657 26020 26021    1
 23658 26020 26022    1
 23659 26023 26024    1
 23660 26023 26025    1
 23661 26026 26027    1
 23662 26026 26028    1
 23663 26029 26030    1
 23664 26029 26031    1
 23665 26032 26033    1
 23666 26032 26034    1
 23667 26035 26036    1
 23668 26035 26037    1
 23669 26038 26039    1
 23670 26038 26040    1
 23671 26041 26042    1
 23672 26041 26043    1
 23673 26044 26045    1
 23674 26044 26046    1
 23675 26047 26048    1
 23676 26047 26049    1
 23677 26050 26051    1
 23678 26050 26052    1
 23679 26053 26054    1
 23680 26053 26055    1
 23681 26056 26057    1
 23682 26056 26058    1
 23683 26059 26060    1
 23684 26059 26061    1
 23685 26062 26063    1
 23686 26062 26064    1
 23687 26065 26066    1
 23688 26065 26067    1
 23689 26068 26069    1
 23690 26068 26070    1
 23691 26071 26072    1
 23692 26071 26073    1
 23693 26074 26075    1
 23694 26074 26076    1
 23695 26077 26078    1
 23696 26077 26079    1
 23697 26080 26081    1
 23698 26080 26082    1
 23699 26083 26084    1
 23700 26083 26085    1
 23701 26086 26087    1
 23702 26086 26088    1
 23703 26089 26090    1
 23704 26089 26091    1
 23705 26092 26093    1
 23706 26092 26094    1
 23707 26095 26096    1
 23708 26095 26097    1
 23709 26098 26099    1
 23710 26098 26100    1
 23711 26101 26102    1
 23712 26101 26103    1
 23713 26104 26105    1
 23714 26104 26106    1
 23715 26107 26108    1
 23716 26107 26109    1
 23717 26110 26111    1
 23718 26110 26112    1
 23719 26113 26114    1
 23720 26113 26115    1
 23721 26116 26117    1
 23722 26116 26118    1
 23723 26119 26120    1
 23724 26119 26121    1
 23725 26122 26123    1
 23726 26122 26124    1
 23727 26125 26126    1
 23728 26125 26127    1
 23729 26128 26129    1
 23730 26128 26130    1
 23731 26131 26132    1
 23732 26131 26133    1
 23733 26134 26135    1
 23734 26134 26136    1
 23735 26137 26138    1
 23736 26137 26139    1
 23737 26140 26141    1
 23738 26140 26142    1
 23739 26143 26144    1
 23740 26143 26145    1
 23741 26146 26147    1
 23742 26146 26148    1
 23743 26149 26150    1
 23744 26149 26151    1
 23745 26152 26153    1
 23746 26152 26154    1
 23747 26155 26156    1
 23748 26155 26157    1
 23749 26158 26159    1
 23750 26158 26160    1
 23751 26161 26162    1
 23752 26161 26163    1
 23753 26164 26165    1
 23754 26164 26166    1
 23755 26167 26168    1
 23756 26167 26169    1
 23757 26170 26171    1
 23758 26170 26172    1
 23759 26173 26174    1
 23760 26173 26175    1
 23761 26176 26177    1
 23762 26176 26178    1
 23763 26179 26180    1
 23764 26179 26181    1
 23765 26182 26183    1
 23766 26182 26184    1
 23767 26185 26186    1
 23768 26185 26187    1
 23769 26188 26189    1
 23770 26188 26190    1
 23771 26191 26192    1
 23772 26191 26193    1
 23773 26194 26195    1
 23774 26194 26196    1
 23775 26197 26198    1
 23776 26197 26199    1
 23777 26200 26201    1
 23778 26200 26202    1
 23779 26203 26204    1
 23780 26203 26205    1
 23781 26206 26207    1
 23782 26206 26208    1
 23783 26209 26210    1
 23784 26209 26211    1
 23785 26212 26213    1
 23786 26212 26214    1
 23787 26215 26216    1
 23788 26215 26217    1
 23789 26218 26219    1
 23790 26218 26220    1
 23791 26221 26222    1
 23792 26221 26223    1
 23793 26224 26225    1
 23794 26224 26226    1
 23795 26227 26228    1
 23796 26227 26229    1
 23797 26230 26231    1
 23798 26230 26232    1
 23799 26233 26234    1
 23800 26233 26235    1
 23801 26236 26237    1
 23802 26236 26238    1
 23803 26239 26240    1
 23804 26239 26241    1
 23805 26242 26243    1
 23806 26242 26244    1
 23807 26245 26246    1
 23808 26245 26247    1
 23809 26248 26249    1
 23810 26248 26250    1
 23811 26251 26252    1
 23812 26251 26253    1
 23813 26254 26255    1
 23814 26254 26256    1
 23815 26257 26258    1
 23816 26257 26259    1
 23817 26260 26261    1
 23818 26260 26262    1
 23819 26263 26264    1
 23820 26263 26265    1
 23821 26266 26267    1
 23822 26266 26268    1
 23823 26269 26270    1
 23824 26269 26271    1
 23825 26272 26273    1
 23826 26272 26274    1
 23827 26275 26276    1
 23828 26275 26277    1
 23829 26278 26279    1
 23830 26278 26280    1
 23831 26281 26282    1
 23832 26281 26283    1
 23833 26284 26285    1
 23834 26284 26286    1
 23835 26287 26288    1
 23836 26287 26289    1
 23837 26290 26291    1
 23838 26290 26292    1
 23839 26293 26294    1
 23840 26293 26295    1
 23841 26296 26297    1
 23842 26296 26298    1
 23843 26299 26300    1
 23844 26299 26301    1
 23845 26302 26303    1
 23846 26302 26304    1
 23847 26305 26306    1
 23848 26305 26307    1
 23849 26308 26309    1
 23850 26308 26310    1
 23851 26311 26312    1
 23852 26311 26313    1
 23853 26314 26315    1
 23854 26314 26316    1
 23855 26317 26318    1
 23856 26317 26319    1
 23857 26320 26321    1
 23858 26320 26322    1
 23859 26323 26324    1
 23860 26323 26325    1
 23861 26326 26327    1
 23862 26326 26328    1
 23863 26329 26330    1
 23864 26329 26331    1
 23865 26332 26333    1
 23866 26332 26334    1
 23867 26335 26336    1
 23868 26335 26337    1
 23869 26338 26339    1
 23870 26338 26340    1
 23871 26341 26342    1
 23872 26341 26343    1
 23873 26344 26345    1
 23874 26344 26346    1
 23875 26347 26348    1
 23876 26347 26349    1
 23877 26350 26351    1
 23878 26350 26352    1
 23879 26353 26354    1
 23880 26353 26355    1
 23881 26356 26357    1
 23882 26356 26358    1
 23883 26359 26360    1
 23884 26359 26361    1
 23885 26362 26363    1
 23886 26362 26364    1
 23887 26365 26366    1
 23888 26365 26367    1
 23889 26368 26369    1
 23890 26368 26370    1
 23891 26371 26372    1
 23892 26371 26373    1
 23893 26374 26375    1
 23894 26374 26376    1
 23895 26377 26378    1
 23896 26377 26379    1
 23897 26380 26381    1
 23898 26380 26382    1
 23899 26383 26384    1
 23900 26383 26385    1
 23901 26386 26387    1
 23902 26386 26388    1
 23903 26389 26390    1
 23904 26389 26391    1
 23905 26392 26393    1
 23906 26392 26394    1
 23907 26395 26396    1
 23908 26395 26397    1
 23909 26398 26399    1
 23910 26398 26400    1
 23911 26401 26402    1
 23912 26401 26403    1
 23913 26404 26405    1
 23914 26404 26406    1
 23915 26407 26408    1
 23916 26407 26409    1
 23917 26410 26411    1
 23918 26410 26412    1
 23919 26413 26414    1
 23920 26413 26415    1
 23921 26416 26417    1
 23922 26416 26418    1
 23923 26419 26420    1
 23924 26419 26421    1
 23925 26422 26423    1
 23926 26422 26424    1
 23927 26425 26426    1
 23928 26425 26427    1
 23929 26428 26429    1
 23930 26428 26430    1
 23931 26431 26432    1
 23932 26431 26433    1
 23933 26434 26435    1
 23934 26434 26436    1
 23935 26437 26438    1
 23936 26437 26439    1
 23937 26440 26441    1
 23938 26440 26442    1
 23939 26443 26444    1
 23940 26443 26445    1
 23941 26446 26447    1
 23942 26446 26448    1
 23943 26449 26450    1
 23944 26449 26451    1
 23945 26452 26453    1
 23946 26452 26454    1
 23947 26455 26456    1
 23948 26455 26457    1
 23949 26458 26459    1
 23950 26458 26460    1
 23951 26461 26462    1
 23952 26461 26463    1
 23953 26464 26465    1
 23954 26464 26466    1
 23955 26467 26468    1
 23956 26467 26469    1
 23957 26470 26471    1
 23958 26470 26472    1
 23959 26473 26474    1
 23960 26473 26475    1
 23961 26476 26477    1
 23962 26476 26478    1
 23963 26479 26480    1
 23964 26479 26481    1
 23965 26482 26483    1
 23966 26482 26484    1
 23967 26485 26486    1
 23968 26485 26487    1
 23969 26488 26489    1
 23970 26488 26490    1
 23971 26491 26492    1
 23972 26491 26493    1
 23973 26494 26495    1
 23974 26494 26496    1
 23975 26497 26498    1
 23976 26497 26499    1
 23977 26500 26501    1
 23978 26500 26502    1
 23979 26503 26504    1
 23980 26503 26505    1
 23981 26506 26507    1
 23982 26506 26508    1
 23983 26509 26510    1
 23984 26509 26511    1
 23985 26512 26513    1
 23986 26512 26514    1
 23987 26515 26516    1
 23988 26515 26517    1
 23989 26518 26519    1
 23990 26518 26520    1
 23991 26521 26522    1
 23992 26521 26523    1
 23993 26524 26525    1
 23994 26524 26526    1
 23995 26527 26528    1
 23996 26527 26529    1
 23997 26530 26531    1
 23998 26530 26532    1
 23999 26533 26534    1
 24000 26533 26535    1
 24001 26536 26537    1
 24002 26536 26538    1
 24003 26539 26540    1
 24004 26539 26541    1
 24005 26542 26543    1
 24006 26542 26544    1
 24007 26545 26546    1
 24008 26545 26547    1
 24009 26548 26549    1
 24010 26548 26550    1
 24011 26551 26552    1
 24012 26551 26553    1
 24013 26554 26555    1
 24014 26554 26556    1
 24015 26557 26558    1
 24016 26557 26559    1
 24017 26560 26561    1
 24018 26560 26562    1
 24019 26563 26564    1
 24020 26563 26565    1
 24021 26566 26567    1
 24022 26566 26568    1
 24023 26569 26570    1
 24024 26569 26571    1
 24025 26572 26573    1
 24026 26572 26574    1
 24027 26575 26576    1
 24028 26575 26577    1
 24029 26578 26579    1
 24030 26578 26580    1
 24031 26581 26582    1
 24032 26581 26583    1
 24033 26584 26585    1
 24034 26584 26586    1
 24035 26587 26588    1
 24036 26587 26589    1
 24037 26590 26591    1
 24038 26590 26592    1
 24039 26593 26594    1
 24040 26593 26595    1
 24041 26596 26597    1
 24042 26596 26598    1
 24043 26599 26600    1
 24044 26599 26601    1
 24045 26602 26603    1
 24046 26602 26604    1
 24047 26605 26606    1
 24048 26605 26607    1
 24049 26608 26609    1
 24050 26608 26610    1
 24051 26611 26612    1
 24052 26611 26613    1
 24053 26614 26615    1
 24054 26614 26616    1
 24055 26617 26618    1
 24056 26617 26619    1
 24057 26620 26621    1
 24058 26620 26622    1
 24059 26623 26624    1
 24060 26623 26625    1
 24061 26626 26627    1
 24062 26626 26628    1
 24063 26629 26630    1
 24064 26629 26631    1
 24065 26632 26633    1
 24066 26632 26634    1
 24067 26635 26636    1
 24068 26635 26637    1
 24069 26638 26639    1
 24070 26638 26640    1
 24071 26641 26642    1
 24072 26641 26643    1
 24073 26644 26645    1
 24074 26644 26646    1
 24075 26647 26648    1
 24076 26647 26649    1
 24077 26650 26651    1
 24078 26650 26652    1
 24079 26653 26654    1
 24080 26653 26655    1
 24081 26656 26657    1
 24082 26656 26658    1
 24083 26659 26660    1
 24084 26659 26661    1
 24085 26662 26663    1
 24086 26662 26664    1
 24087 26665 26666    1
 24088 26665 26667    1
 24089 26668 26669    1
 24090 26668 26670    1
 24091 26671 26672    1
 24092 26671 26673    1
 24093 26674 26675    1
 24094 26674 26676    1
 24095 26677 26678    1
 24096 26677 26679    1
 24097 26680 26681    1
 24098 26680 26682    1
 24099 26683 26684    1
 24100 26683 26685    1
 24101 26686 26687    1
 24102 26686 26688    1
 24103 26689 26690    1
 24104 26689 26691    1
 24105 26692 26693    1
 24106 26692 26694    1
 24107 26695 26696    1
 24108 26695 26697    1
 24109 26698 26699    1
 24110 26698 26700    1
 24111 26701 26702    1
 24112 26701 26703    1
 24113 26704 26705    1
 24114 26704 26706    1
 24115 26707 26708    1
 24116 26707 26709    1
 24117 26710 26711    1
 24118 26710 26712    1
 24119 26713 26714    1
 24120 26713 26715    1
 24121 26716 26717    1
 24122 26716 26718    1
 24123 26719 26720    1
 24124 26719 26721    1
 24125 26722 26723    1
 24126 26722 26724    1
 24127 26725 26726    1
 24128 26725 26727    1
 24129 26728 26729    1
 24130 26728 26730    1
 24131 26731 26732    1
 24132 26731 26733    1
 24133 26734 26735    1
 24134 26734 26736    1
 24135 26737 26738    1
 24136 26737 26739    1
 24137 26740 26741    1
 24138 26740 26742    1
 24139 26743 26744    1
 24140 26743 26745    1
 24141 26746 26747    1
 24142 26746 26748    1
 24143 26749 26750    1
 24144 26749 26751    1
 24145 26752 26753    1
 24146 26752 26754    1
 24147 26755 26756    1
 24148 26755 26757    1
 24149 26758 26759    1
 24150 26758 26760    1
 24151 26761 26762    1
 24152 26761 26763    1
 24153 26764 26765    1
 24154 26764 26766    1
 24155 26767 26768    1
 24156 26767 26769    1
 24157 26770 26771    1
 24158 26770 26772    1
 24159 26773 26774    1
 24160 26773 26775    1
 24161 26776 26777    1
 24162 26776 26778    1
 24163 26779 26780    1
 24164 26779 26781    1
 24165 26782 26783    1
 24166 26782 26784    1
 24167 26785 26786    1
 24168 26785 26787    1
 24169 26788 26789    1
 24170 26788 26790    1
 24171 26791 26792    1
 24172 26791 26793    1
 24173 26794 26795    1
 24174 26794 26796    1
 24175 26797 26798    1
 24176 26797 26799    1
 24177 26800 26801    1
 24178 26800 26802    1
 24179 26803 26804    1
 24180 26803 26805    1
 24181 26806 26807    1
 24182 26806 26808    1
 24183 26809 26810    1
 24184 26809 26811    1
 24185 26812 26813    1
 24186 26812 26814    1
 24187 26815 26816    1
 24188 26815 26817    1
 24189 26818 26819    1
 24190 26818 26820    1
 24191 26821 26822    1
 24192 26821 26823    1
 24193 26824 26825    1
 24194 26824 26826    1
 24195 26827 26828    1
 24196 26827 26829    1
 24197 26830 26831    1
 24198 26830 26832    1
 24199 26833 26834    1
 24200 26833 26835    1
 24201 26836 26837    1
 24202 26836 26838    1
 24203 26839 26840    1
 24204 26839 26841    1
 24205 26842 26843    1
 24206 26842 26844    1
 24207 26845 26846    1
 24208 26845 26847    1
 24209 26848 26849    1
 24210 26848 26850    1
 24211 26851 26852    1
 24212 26851 26853    1
 24213 26854 26855    1
 24214 26854 26856    1
 24215 26857 26858    1
 24216 26857 26859    1
 24217 26860 26861    1
 24218 26860 26862    1
 24219 26863 26864    1
 24220 26863 26865    1
 24221 26866 26867    1
 24222 26866 26868    1
 24223 26869 26870    1
 24224 26869 26871    1
 24225 26872 26873    1
 24226 26872 26874    1
 24227 26875 26876    1
 24228 26875 26877    1
 24229 26878 26879    1
 24230 26878 26880    1
 24231 26881 26882    1
 24232 26881 26883    1
 24233 26884 26885    1
 24234 26884 26886    1
 24235 26887 26888    1
 24236 26887 26889    1
 24237 26890 26891    1
 24238 26890 26892    1
 24239 26893 26894    1
 24240 26893 26895    1
 24241 26896 26897    1
 24242 26896 26898    1
 24243 26899 26900    1
 24244 26899 26901    1
 24245 26902 26903    1
 24246 26902 26904    1
 24247 26905 26906    1
 24248 26905 26907    1
 24249 26908 26909    1
 24250 26908 26910    1
 24251 26911 26912    1
 24252 26911 26913    1
 24253 26914 26915    1
 24254 26914 26916    1
 24255 26917 26918    1
 24256 26917 26919    1
 24257 26920 26921    1
 24258 26920 26922    1
 24259 26923 26924    1
 24260 26923 26925    1
 24261 26926 26927    1
 24262 26926 26928    1
 24263 26929 26930    1
 24264 26929 26931    1
 24265 26932 26933    1
 24266 26932 26934    1
 24267 26935 26936    1
 24268 26935 26937    1
 24269 26938 26939    1
 24270 26938 26940    1
 24271 26941 26942    1
 24272 26941 26943    1
 24273 26944 26945    1
 24274 26944 26946    1
 24275 26947 26948    1
 24276 26947 26949    1
 24277 26950 26951    1
 24278 26950 26952    1
 24279 26953 26954    1
 24280 26953 26955    1
 24281 26956 26957    1
 24282 26956 26958    1
 24283 26959 26960    1
 24284 26959 26961    1
 24285 26962 26963    1
 24286 26962 26964    1
 24287 26965 26966    1
 24288 26965 26967    1
 24289 26968 26969    1
 24290 26968 26970    1
 24291 26971 26972    1
 24292 26971 26973    1
 24293 26974 26975    1
 24294 26974 26976    1
 24295 26977 26978    1
 24296 26977 26979    1
 24297 26980 26981    1
 24298 26980 26982    1
 24299 26983 26984    1
 24300 26983 26985    1
 24301 26986 26987    1
 24302 26986 26988    1
 24303 26989 26990    1
 24304 26989 26991    1
 24305 26992 26993    1
 24306 26992 26994    1
 24307 26995 26996    1
 24308 26995 26997    1
 24309 26998 26999    1
 24310 26998 27000    1
 24311 27001 27002    1
 24312 27001 27003    1
 24313 27004 27005    1
 24314 27004 27006    1
 24315 27007 27008    1
 24316 27007 27009    1
 24317 27010 27011    1
 24318 27010 27012    1
 24319 27013 27014    1
 24320 27013 27015    1
 24321 27016 27017    1
 24322 27016 27018    1
 24323 27019 27020    1
 24324 27019 27021    1
 24325 27022 27023    1
 24326 27022 27024    1
 24327 27025 27026    1
 24328 27025 27027    1
 24329 27028 27029    1
 24330 27028 27030    1
 24331 27031 27032    1
 24332 27031 27033    1
 24333 27034 27035    1
 24334 27034 27036    1
 24335 27037 27038    1
 24336 27037 27039    1
 24337 27040 27041    1
 24338 27040 27042    1
 24339 27043 27044    1
 24340 27043 27045    1
 24341 27046 27047    1
 24342 27046 27048    1
 24343 27049 27050    1
 24344 27049 27051    1
 24345 27052 27053    1
 24346 27052 27054    1
 24347 27055 27056    1
 24348 27055 27057    1
 24349 27058 27059    1
 24350 27058 27060    1
 24351 27061 27062    1
 24352 27061 27063    1
 24353 27064 27065    1
 24354 27064 27066    1
 24355 27067 27068    1
 24356 27067 27069    1
 24357 27070 27071    1
 24358 27070 27072    1
 24359 27073 27074    1
 24360 27073 27075    1
 24361 27076 27077    1
 24362 27076 27078    1
 24363 27079 27080    1
 24364 27079 27081    1
 24365 27082 27083    1
 24366 27082 27084    1
 24367 27085 27086    1
 24368 27085 27087    1
 24369 27088 27089    1
 24370 27088 27090    1
 24371 27091 27092    1
 24372 27091 27093    1
 24373 27094 27095    1
 24374 27094 27096    1
 24375 27097 27098    1
 24376 27097 27099    1
 24377 27100 27101    1
 24378 27100 27102    1
 24379 27103 27104    1
 24380 27103 27105    1
 24381 27106 27107    1
 24382 27106 27108    1
 24383 27109 27110    1
 24384 27109 27111    1
 24385 27112 27113    1
 24386 27112 27114    1
 24387 27115 27116    1
 24388 27115 27117    1
 24389 27118 27119    1
 24390 27118 27120    1
 24391 27121 27122    1
 24392 27121 27123    1
 24393 27124 27125    1
 24394 27124 27126    1
 24395 27127 27128    1
 24396 27127 27129    1
 24397 27130 27131    1
 24398 27130 27132    1
 24399 27133 27134    1
 24400 27133 27135    1
 24401 27136 27137    1
 24402 27136 27138    1
 24403 27139 27140    1
 24404 27139 27141    1
 24405 27142 27143    1
 24406 27142 27144    1
 24407 27145 27146    1
 24408 27145 27147    1
 24409 27148 27149    1
 24410 27148 27150    1
 24411 27151 27152    1
 24412 27151 27153    1
 24413 27154 27155    1
 24414 27154 27156    1
 24415 27157 27158    1
 24416 27157 27159    1
 24417 27160 27161    1
 24418 27160 27162    1
 24419 27163 27164    1
 24420 27163 27165    1
 24421 27166 27167    1
 24422 27166 27168    1
 24423 27169 27170    1
 24424 27169 27171    1
 24425 27172 27173    1
 24426 27172 27174    1
 24427 27175 27176    1
 24428 27175 27177    1
 24429 27178 27179    1
 24430 27178 27180    1
 24431 27181 27182    1
 24432 27181 27183    1
 24433 27184 27185    1
 24434 27184 27186    1
 24435 27187 27188    1
 24436 27187 27189    1
 24437 27190 27191    1
 24438 27190 27192    1
 24439 27193 27194    1
 24440 27193 27195    1
 24441 27196 27197    1
 24442 27196 27198    1
 24443 27199 27200    1
 24444 27199 27201    1
 24445 27202 27203    1
 24446 27202 27204    1
 24447 27205 27206    1
 24448 27205 27207    1
 24449 27208 27209    1
 24450 27208 27210    1
 24451 27211 27212    1
 24452 27211 27213    1
 24453 27214 27215    1
 24454 27214 27216    1
 24455 27217 27218    1
 24456 27217 27219    1
 24457 27220 27221    1
 24458 27220 27222    1
 24459 27223 27224    1
 24460 27223 27225    1
 24461 27226 27227    1
 24462 27226 27228    1
 24463 27229 27230    1
 24464 27229 27231    1
 24465 27232 27233    1
 24466 27232 27234    1
 24467 27235 27236    1
 24468 27235 27237    1
 24469 27238 27239    1
 24470 27238 27240    1
 24471 27241 27242    1
 24472 27241 27243    1
 24473 27244 27245    1
 24474 27244 27246    1
 24475 27247 27248    1
 24476 27247 27249    1
 24477 27250 27251    1
 24478 27250 27252    1
 24479 27253 27254    1
 24480 27253 27255    1
 24481 27256 27257    1
 24482 27256 27258    1
 24483 27259 27260    1
 24484 27259 27261    1
 24485 27262 27263    1
 24486 27262 27264    1
 24487 27265 27266    1
 24488 27265 27267    1
 24489 27268 27269    1
 24490 27268 27270    1
 24491 27271 27272    1
 24492 27271 27273    1
 24493 27274 27275    1
 24494 27274 27276    1
 24495 27277 27278    1
 24496 27277 27279    1
 24497 27280 27281    1
 24498 27280 27282    1
 24499 27283 27284    1
 24500 27283 27285    1
 24501 27286 27287    1
 24502 27286 27288    1
 24503 27289 27290    1
 24504 27289 27291    1
 24505 27292 27293    1
 24506 27292 27294    1
 24507 27295 27296    1
 24508 27295 27297    1
 24509 27298 27299    1
 24510 27298 27300    1
 24511 27301 27302    1
 24512 27301 27303    1
 24513 27304 27305    1
 24514 27304 27306    1
 24515 27307 27308    1
 24516 27307 27309    1
 24517 27310 27311    1
 24518 27310 27312    1
 24519 27313 27314    1
 24520 27313 27315    1
 24521 27316 27317    1
 24522 27316 27318    1
 24523 27319 27320    1
 24524 27319 27321    1
 24525 27322 27323    1
 24526 27322 27324    1
 24527 27325 27326    1
 24528 27325 27327    1
 24529 27328 27329    1
 24530 27328 27330    1
 24531 27331 27332    1
 24532 27331 27333    1
 24533 27334 27335    1
 24534 27334 27336    1
 24535 27337 27338    1
 24536 27337 27339    1
 24537 27340 27341    1
 24538 27340 27342    1
 24539 27343 27344    1
 24540 27343 27345    1
 24541 27346 27347    1
 24542 27346 27348    1
 24543 27349 27350    1
 24544 27349 27351    1
 24545 27352 27353    1
 24546 27352 27354    1
 24547 27355 27356    1
 24548 27355 27357    1
 24549 27358 27359    1
 24550 27358 27360    1
 24551 27361 27362    1
 24552 27361 27363    1
 24553 27364 27365    1
 24554 27364 27366    1
 24555 27367 27368    1
 24556 27367 27369    1
 24557 27370 27371    1
 24558 27370 27372    1
 24559 27373 27374    1
 24560 27373 27375    1
 24561 27376 27377    1
 24562 27376 27378    1
 24563 27379 27380    1
 24564 27379 27381    1
 24565 27382 27383    1
 24566 27382 27384    1
 24567 27385 27386    1
 24568 27385 27387    1
 24569 27388 27389    1
 24570 27388 27390    1
 24571 27391 27392    1
 24572 27391 27393    1
 24573 27394 27395    1
 24574 27394 27396    1
 24575 27397 27398    1
 24576 27397 27399    1
 24577 27400 27401    1
 24578 27400 27402    1
 24579 27403 27404    1
 24580 27403 27405    1
 24581 27406 27407    1
 24582 27406 27408    1
 24583 27409 27410    1
 24584 27409 27411    1
 24585 27412 27413    1
 24586 27412 27414    1
 24587 27415 27416    1
 24588 27415 27417    1
 24589 27418 27419    1
 24590 27418 27420    1
 24591 27421 27422    1
 24592 27421 27423    1
 24593 27424 27425    1
 24594 27424 27426    1
 24595 27427 27428    1
 24596 27427 27429    1
 24597 27430 27431    1
 24598 27430 27432    1
 24599 27433 27434    1
 24600 27433 27435    1
 24601 27436 27437    1
 24602 27436 27438    1
 24603 27439 27440    1
 24604 27439 27441    1
 24605 27442 27443    1
 24606 27442 27444    1
 24607 27445 27446    1
 24608 27445 27447    1
 24609 27448 27449    1
 24610 27448 27450    1
 24611 27451 27452    1
 24612 27451 27453    1
 24613 27454 27455    1
 24614 27454 27456    1
 24615 27457 27458    1
 24616 27457 27459    1
 24617 27460 27461    1
 24618 27460 27462    1
 24619 27463 27464    1
 24620 27463 27465    1
 24621 27466 27467    1
 24622 27466 27468    1
 24623 27469 27470    1
 24624 27469 27471    1
 24625 27472 27473    1
 24626 27472 27474    1
 24627 27475 27476    1
 24628 27475 27477    1
 24629 27478 27479    1
 24630 27478 27480    1
 24631 27481 27482    1
 24632 27481 27483    1
 24633 27484 27485    1
 24634 27484 27486    1
 24635 27487 27488    1
 24636 27487 27489    1
 24637 27490 27491    1
 24638 27490 27492    1
 24639 27493 27494    1
 24640 27493 27495    1
 24641 27496 27497    1
 24642 27496 27498    1
 24643 27499 27500    1
 24644 27499 27501    1
 24645 27502 27503    1
 24646 27502 27504    1
 24647 27505 27506    1
 24648 27505 27507    1
 24649 27508 27509    1
 24650 27508 27510    1
 24651 27511 27512    1
 24652 27511 27513    1
 24653 27514 27515    1
 24654 27514 27516    1
 24655 27517 27518    1
 24656 27517 27519    1
 24657 27520 27521    1
 24658 27520 27522    1
 24659 27523 27524    1
 24660 27523 27525    1
 24661 27526 27527    1
 24662 27526 27528    1
 24663 27529 27530    1
 24664 27529 27531    1
 24665 27532 27533    1
 24666 27532 27534    1
 24667 27535 27536    1
 24668 27535 27537    1
 24669 27538 27539    1
 24670 27538 27540    1
 24671 27541 27542    1
 24672 27541 27543    1
 24673 27544 27545    1
 24674 27544 27546    1
 24675 27547 27548    1
 24676 27547 27549    1
 24677 27550 27551    1
 24678 27550 27552    1
 24679 27553 27554    1
 24680 27553 27555    1
 24681 27556 27557    1
 24682 27556 27558    1
 24683 27559 27560    1
 24684 27559 27561    1
 24685 27562 27563    1
 24686 27562 27564    1
 24687 27565 27566    1
 24688 27565 27567    1
 24689 27568 27569    1
 24690 27568 27570    1
 24691 27571 27572    1
 24692 27571 27573    1
 24693 27574 27575    1
 24694 27574 27576    1
 24695 27577 27578    1
 24696 27577 27579    1
 24697 27580 27581    1
 24698 27580 27582    1
 24699 27583 27584    1
 24700 27583 27585    1
 24701 27586 27587    1
 24702 27586 27588    1
 24703 27589 27590    1
 24704 27589 27591    1
 24705 27592 27593    1
 24706 27592 27594    1
 24707 27595 27596    1
 24708 27595 27597    1
 24709 27598 27599    1
 24710 27598 27600    1
 24711 27601 27602    1
 24712 27601 27603    1
 24713 27604 27605    1
 24714 27604 27606    1
 24715 27607 27608    1
 24716 27607 27609    1
 24717 27610 27611    1
 24718 27610 27612    1
 24719 27613 27614    1
 24720 27613 27615    1
 24721 27616 27617    1
 24722 27616 27618    1
 24723 27619 27620    1
 24724 27619 27621    1
 24725 27622 27623    1
 24726 27622 27624    1
 24727 27625 27626    1
 24728 27625 27627    1
 24729 27628 27629    1
 24730 27628 27630    1
 24731 27631 27632    1
 24732 27631 27633    1
 24733 27634 27635    1
 24734 27634 27636    1
 24735 27637 27638    1
 24736 27637 27639    1
 24737 27640 27641    1
 24738 27640 27642    1
 24739 27643 27644    1
 24740 27643 27645    1
 24741 27646 27647    1
 24742 27646 27648    1
 24743 27649 27650    1
 24744 27649 27651    1
 24745 27652 27653    1
 24746 27652 27654    1
 24747 27655 27656    1
 24748 27655 27657    1
 24749 27658 27659    1
 24750 27658 27660    1
 24751 27661 27662    1
 24752 27661 27663    1
 24753 27664 27665    1
 24754 27664 27666    1
 24755 27667 27668    1
 24756 27667 27669    1
 24757 27670 27671    1
 24758 27670 27672    1
 24759 27673 27674    1
 24760 27673 27675    1
 24761 27676 27677    1
 24762 27676 27678    1
 24763 27679 27680    1
 24764 27679 27681    1
 24765 27682 27683    1
 24766 27682 27684    1
 24767 27685 27686    1
 24768 27685 27687    1
 24769 27688 27689    1
 24770 27688 27690    1
 24771 27691 27692    1
 24772 27691 27693    1
 24773 27694 27695    1
 24774 27694 27696    1
 24775 27697 27698    1
 24776 27697 27699    1
 24777 27700 27701    1
 24778 27700 27702    1
 24779 27703 27704    1
 24780 27703 27705    1
 24781 27706 27707    1
 24782 27706 27708    1
 24783 27709 27710    1
 24784 27709 27711    1
 24785 27712 27713    1
 24786 27712 27714    1
 24787 27715 27716    1
 24788 27715 27717    1
 24789 27718 27719    1
 24790 27718 27720    1
 24791 27721 27722    1
 24792 27721 27723    1
 24793 27724 27725    1
 24794 27724 27726    1
 24795 27727 27728    1
 24796 27727 27729    1
 24797 27730 27731    1
 24798 27730 27732    1
 24799 27733 27734    1
 24800 27733 27735    1
 24801 27736 27737    1
 24802 27736 27738    1
 24803 27739 27740    1
 24804 27739 27741    1
 24805 27742 27743    1
 24806 27742 27744    1
 24807 27745 27746    1
 24808 27745 27747    1
 24809 27748 27749    1
 24810 27748 27750    1
 24811 27751 27752    1
 24812 27751 27753    1
 24813 27754 27755    1
 24814 27754 27756    1
 24815 27757 27758    1
 24816 27757 27759    1
 24817 27760 27761    1
 24818 27760 27762    1
 24819 27763 27764    1
 24820 27763 27765    1
 24821 27766 27767    1
 24822 27766 27768    1
 24823 27769 27770    1
 24824 27769 27771    1
 24825 27772 27773    1
 24826 27772 27774    1
 24827 27775 27776    1
 24828 27775 27777    1
 24829 27778 27779    1
 24830 27778 27780    1
 24831 27781 27782    1
 24832 27781 27783    1
 24833 27784 27785    1
 24834 27784 27786    1
 24835 27787 27788    1
 24836 27787 27789    1
 24837 27790 27791    1
 24838 27790 27792    1
 24839 27793 27794    1
 24840 27793 27795    1
 24841 27796 27797    1
 24842 27796 27798    1
 24843 27799 27800    1
 24844 27799 27801    1
 24845 27802 27803    1
 24846 27802 27804    1
 24847 27805 27806    1
 24848 27805 27807    1
 24849 27808 27809    1
 24850 27808 27810    1
 24851 27811 27812    1
 24852 27811 27813    1
 24853 27814 27815    1
 24854 27814 27816    1
 24855 27817 27818    1
 24856 27817 27819    1
 24857 27820 27821    1
 24858 27820 27822    1
 24859 27823 27824    1
 24860 27823 27825    1
 24861 27826 27827    1
 24862 27826 27828    1
 24863 27829 27830    1
 24864 27829 27831    1
 24865 27832 27833    1
 24866 27832 27834    1
 24867 27835 27836    1
 24868 27835 27837    1
 24869 27838 27839    1
 24870 27838 27840    1
 24871 27841 27842    1
 24872 27841 27843    1
 24873 27844 27845    1
 24874 27844 27846    1
 24875 27847 27848    1
 24876 27847 27849    1
 24877 27850 27851    1
 24878 27850 27852    1
 24879 27853 27854    1
 24880 27853 27855    1
 24881 27856 27857    1
 24882 27856 27858    1
 24883 27859 27860    1
 24884 27859 27861    1
 24885 27862 27863    1
 24886 27862 27864    1
 24887 27865 27866    1
 24888 27865 27867    1
 24889 27868 27869    1
 24890 27868 27870    1
 24891 27871 27872    1
 24892 27871 27873    1
 24893 27874 27875    1
 24894 27874 27876    1
 24895 27877 27878    1
 24896 27877 27879    1
 24897 27880 27881    1
 24898 27880 27882    1
 24899 27883 27884    1
 24900 27883 27885    1
 24901 27886 27887    1
 24902 27886 27888    1
 24903 27889 27890    1
 24904 27889 27891    1
 24905 27892 27893    1
 24906 27892 27894    1
 24907 27895 27896    1
 24908 27895 27897    1
 24909 27898 27899    1
 24910 27898 27900    1
 24911 27901 27902    1
 24912 27901 27903    1
 24913 27904 27905    1
 24914 27904 27906    1
 24915 27907 27908    1
 24916 27907 27909    1
 24917 27910 27911    1
 24918 27910 27912    1
 24919 27913 27914    1
 24920 27913 27915    1
 24921 27916 27917    1
 24922 27916 27918    1
 24923 27919 27920    1
 24924 27919 27921    1
 24925 27922 27923    1
 24926 27922 27924    1
 24927 27925 27926    1
 24928 27925 27927    1
 24929 27928 27929    1
 24930 27928 27930    1
 24931 27931 27932    1
 24932 27931 27933    1
 24933 27934 27935    1
 24934 27934 27936    1
 24935 27937 27938    1
 24936 27937 27939    1
 24937 27940 27941    1
 24938 27940 27942    1
 24939 27943 27944    1
 24940 27943 27945    1
 24941 27946 27947    1
 24942 27946 27948    1
 24943 27949 27950    1
 24944 27949 27951    1
 24945 27952 27953    1
 24946 27952 27954    1
 24947 27955 27956    1
 24948 27955 27957    1
 24949 27958 27959    1
 24950 27958 27960    1
 24951 27961 27962    1
 24952 27961 27963    1
 24953 27964 27965    1
 24954 27964 27966    1
 24955 27967 27968    1
 24956 27967 27969    1
 24957 27970 27971    1
 24958 27970 27972    1
 24959 27973 27974    1
 24960 27973 27975    1
 24961 27976 27977    1
 24962 27976 27978    1
 24963 27979 27980    1
 24964 27979 27981    1
 24965 27982 27983    1
 24966 27982 27984    1
 24967 27985 27986    1
 24968 27985 27987    1
 24969 27988 27989    1
 24970 27988 27990    1
 24971 27991 27992    1
 24972 27991 27993    1
 24973 27994 27995    1
 24974 27994 27996    1
 24975 27997 27998    1
 24976 27997 27999    1
 24977 28000 28001    1
 24978 28000 28002    1
 24979 28003 28004    1
 24980 28003 28005    1
 24981 28006 28007    1
 24982 28006 28008    1
 24983 28009 28010    1
 24984 28009 28011    1
 24985 28012 28013    1
 24986 28012 28014    1
 24987 28015 28016    1
 24988 28015 28017    1
 24989 28018 28019    1
 24990 28018 28020    1
 24991 28021 28022    1
 24992 28021 28023    1
 24993 28024 28025    1
 24994 28024 28026    1
 24995 28027 28028    1
 24996 28027 28029    1
 24997 28030 28031    1
 24998 28030 28032    1
 24999 28033 28034    1
 25000 28033 28035    1
 25001 28036 28037    1
 25002 28036 28038    1
 25003 28039 28040    1
 25004 28039 28041    1
 25005 28042 28043    1
 25006 28042 28044    1
 25007 28045 28046    1
 25008 28045 28047    1
 25009 28048 28049    1
 25010 28048 28050    1
 25011 28051 28052    1
 25012 28051 28053    1
 25013 28054 28055    1
 25014 28054 28056    1
 25015 28057 28058    1
 25016 28057 28059    1
 25017 28060 28061    1
 25018 28060 28062    1
 25019 28063 28064    1
 25020 28063 28065    1
 25021 28066 28067    1
 25022 28066 28068    1
 25023 28069 28070    1
 25024 28069 28071    1
 25025 28072 28073    1
 25026 28072 28074    1
 25027 28075 28076    1
 25028 28075 28077    1
 25029 28078 28079    1
 25030 28078 28080    1
 25031 28081 28082    1
 25032 28081 28083    1
 25033 28084 28085    1
 25034 28084 28086    1
 25035 28087 28088    1
 25036 28087 28089    1
 25037 28090 28091    1
 25038 28090 28092    1
 25039 28093 28094    1
 25040 28093 28095    1
 25041 28096 28097    1
 25042 28096 28098    1
 25043 28099 28100    1
 25044 28099 28101    1
 25045 28102 28103    1
 25046 28102 28104    1
 25047 28105 28106    1
 25048 28105 28107    1
 25049 28108 28109    1
 25050 28108 28110    1
 25051 28111 28112    1
 25052 28111 28113    1
 25053 28114 28115    1
 25054 28114 28116    1
 25055 28117 28118    1
 25056 28117 28119    1
 25057 28120 28121    1
 25058 28120 28122    1
 25059 28123 28124    1
 25060 28123 28125    1
 25061 28126 28127    1
 25062 28126 28128    1
 25063 28129 28130    1
 25064 28129 28131    1
 25065 28132 28133    1
 25066 28132 28134    1
 25067 28135 28136    1
 25068 28135 28137    1
 25069 28138 28139    1
 25070 28138 28140    1
 25071 28141 28142    1
 25072 28141 28143    1
 25073 28144 28145    1
 25074 28144 28146    1
 25075 28147 28148    1
 25076 28147 28149    1
 25077 28150 28151    1
 25078 28150 28152    1
 25079 28153 28154    1
 25080 28153 28155    1
 25081 28156 28157    1
 25082 28156 28158    1
 25083 28159 28160    1
 25084 28159 28161    1
 25085 28162 28163    1
 25086 28162 28164    1
 25087 28165 28166    1
 25088 28165 28167    1
 25089 28168 28169    1
 25090 28168 28170    1
 25091 28171 28172    1
 25092 28171 28173    1
 25093 28174 28175    1
 25094 28174 28176    1
 25095 28177 28178    1
 25096 28177 28179    1
 25097 28180 28181    1
 25098 28180 28182    1
 25099 28183 28184    1
 25100 28183 28185    1
 25101 28186 28187    1
 25102 28186 28188    1
 25103 28189 28190    1
 25104 28189 28191    1
 25105 28192 28193    1
 25106 28192 28194    1
 25107 28195 28196    1
 25108 28195 28197    1
 25109 28198 28199    1
 25110 28198 28200    1
 25111 28201 28202    1
 25112 28201 28203    1
 25113 28204 28205    1
 25114 28204 28206    1
 25115 28207 28208    1
 25116 28207 28209    1
 25117 28210 28211    1
 25118 28210 28212    1
 25119 28213 28214    1
 25120 28213 28215    1
 25121 28216 28217    1
 25122 28216 28218    1
 25123 28219 28220    1
 25124 28219 28221    1
 25125 28222 28223    1
 25126 28222 28224    1
 25127 28225 28226    1
 25128 28225 28227    1
 25129 28228 28229    1
 25130 28228 28230    1
 25131 28231 28232    1
 25132 28231 28233    1
 25133 28234 28235    1
 25134 28234 28236    1
 25135 28237 28238    1
 25136 28237 28239    1
 25137 28240 28241    1
 25138 28240 28242    1
 25139 28243 28244    1
 25140 28243 28245    1
 25141 28246 28247    1
 25142 28246 28248    1
 25143 28249 28250    1
 25144 28249 28251    1
 25145 28252 28253    1
 25146 28252 28254    1
 25147 28255 28256    1
 25148 28255 28257    1
 25149 28258 28259    1
 25150 28258 28260    1
 25151 28261 28262    1
 25152 28261 28263    1
 25153 28264 28265    1
 25154 28264 28266    1
 25155 28267 28268    1
 25156 28267 28269    1
 25157 28270 28271    1
 25158 28270 28272    1
 25159 28273 28274    1
 25160 28273 28275    1
 25161 28276 28277    1
 25162 28276 28278    1
 25163 28279 28280    1
 25164 28279 28281    1
 25165 28282 28283    1
 25166 28282 28284    1
 25167 28285 28286    1
 25168 28285 28287    1
 25169 28288 28289    1
 25170 28288 28290    1
 25171 28291 28292    1
 25172 28291 28293    1
 25173 28294 28295    1
 25174 28294 28296    1
 25175 28297 28298    1
 25176 28297 28299    1
 25177 28300 28301    1
 25178 28300 28302    1
 25179 28303 28304    1
 25180 28303 28305    1
 25181 28306 28307    1
 25182 28306 28308    1
 25183 28309 28310    1
 25184 28309 28311    1
 25185 28312 28313    1
 25186 28312 28314    1
 25187 28315 28316    1
 25188 28315 28317    1
 25189 28318 28319    1
 25190 28318 28320    1
 25191 28321 28322    1
 25192 28321 28323    1
 25193 28324 28325    1
 25194 28324 28326    1
 25195 28327 28328    1
 25196 28327 28329    1
 25197 28330 28331    1
 25198 28330 28332    1
 25199 28333 28334    1
 25200 28333 28335    1
 25201 28336 28337    1
 25202 28336 28338    1
 25203 28339 28340    1
 25204 28339 28341    1
 25205 28342 28343    1
 25206 28342 28344    1
 25207 28345 28346    1
 25208 28345 28347    1
 25209 28348 28349    1
 25210 28348 28350    1
 25211 28351 28352    1
 25212 28351 28353    1
 25213 28354 28355    1
 25214 28354 28356    1
 25215 28357 28358    1
 25216 28357 28359    1
 25217 28360 28361    1
 25218 28360 28362    1
 25219 28363 28364    1
 25220 28363 28365    1
 25221 28366 28367    1
 25222 28366 28368    1
 25223 28369 28370    1
 25224 28369 28371    1
 25225 28372 28373    1
 25226 28372 28374    1
 25227 28375 28376    1
 25228 28375 28377    1
 25229 28378 28379    1
 25230 28378 28380    1
 25231 28381 28382    1
 25232 28381 28383    1
 25233 28384 28385    1
 25234 28384 28386    1
 25235 28387 28388    1
 25236 28387 28389    1
 25237 28390 28391    1
 25238 28390 28392    1
 25239 28393 28394    1
 25240 28393 28395    1
 25241 28396 28397    1
 25242 28396 28398    1
 25243 28399 28400    1
 25244 28399 28401    1
 25245 28402 28403    1
 25246 28402 28404    1
 25247 28405 28406    1
 25248 28405 28407    1
 25249 28408 28409    1
 25250 28408 28410    1
 25251 28411 28412    1
 25252 28411 28413    1
 25253 28414 28415    1
 25254 28414 28416    1
 25255 28417 28418    1
 25256 28417 28419    1
 25257 28420 28421    1
 25258 28420 28422    1
 25259 28423 28424    1
 25260 28423 28425    1
 25261 28426 28427    1
 25262 28426 28428    1
 25263 28429 28430    1
 25264 28429 28431    1
 25265 28432 28433    1
 25266 28432 28434    1
 25267 28435 28436    1
 25268 28435 28437    1
 25269 28438 28439    1
 25270 28438 28440    1
 25271 28441 28442    1
 25272 28441 28443    1
 25273 28444 28445    1
 25274 28444 28446    1
 25275 28447 28448    1
 25276 28447 28449    1
 25277 28450 28451    1
 25278 28450 28452    1
 25279 28453 28454    1
 25280 28453 28455    1
 25281 28456 28457    1
 25282 28456 28458    1
 25283 28459 28460    1
 25284 28459 28461    1
 25285 28462 28463    1
 25286 28462 28464    1
 25287 28465 28466    1
 25288 28465 28467    1
 25289 28468 28469    1
 25290 28468 28470    1
 25291 28471 28472    1
 25292 28471 28473    1
 25293 28474 28475    1
 25294 28474 28476    1
 25295 28477 28478    1
 25296 28477 28479    1
 25297 28480 28481    1
 25298 28480 28482    1
 25299 28483 28484    1
 25300 28483 28485    1
 25301 28486 28487    1
 25302 28486 28488    1
 25303 28489 28490    1
 25304 28489 28491    1
 25305 28492 28493    1
 25306 28492 28494    1
 25307 28495 28496    1
 25308 28495 28497    1
 25309 28498 28499    1
 25310 28498 28500    1
 25311 28501 28502    1
 25312 28501 28503    1
 25313 28504 28505    1
 25314 28504 28506    1
 25315 28507 28508    1
 25316 28507 28509    1
 25317 28510 28511    1
 25318 28510 28512    1
 25319 28513 28514    1
 25320 28513 28515    1
 25321 28516 28517    1
 25322 28516 28518    1
 25323 28519 28520    1
 25324 28519 28521    1
 25325 28522 28523    1
 25326 28522 28524    1
 25327 28525 28526    1
 25328 28525 28527    1
 25329 28528 28529    1
 25330 28528 28530    1
 25331 28531 28532    1
 25332 28531 28533    1
 25333 28534 28535    1
 25334 28534 28536    1
 25335 28537 28538    1
 25336 28537 28539    1
 25337 28540 28541    1
 25338 28540 28542    1
 25339 28543 28544    1
 25340 28543 28545    1
 25341 28546 28547    1
 25342 28546 28548    1
 25343 28549 28550    1
 25344 28549 28551    1
 25345 28552 28553    1
 25346 28552 28554    1
 25347 28555 28556    1
 25348 28555 28557    1
 25349 28558 28559    1
 25350 28558 28560    1
 25351 28561 28562    1
 25352 28561 28563    1
 25353 28564 28565    1
 25354 28564 28566    1
 25355 28567 28568    1
 25356 28567 28569    1
 25357 28570 28571    1
 25358 28570 28572    1
 25359 28573 28574    1
 25360 28573 28575    1
 25361 28576 28577    1
 25362 28576 28578    1
 25363 28579 28580    1
 25364 28579 28581    1
 25365 28582 28583    1
 25366 28582 28584    1
 25367 28585 28586    1
 25368 28585 28587    1
 25369 28588 28589    1
 25370 28588 28590    1
 25371 28591 28592    1
 25372 28591 28593    1
 25373 28594 28595    1
 25374 28594 28596    1
 25375 28597 28598    1
 25376 28597 28599    1
 25377 28600 28601    1
 25378 28600 28602    1
 25379 28603 28604    1
 25380 28603 28605    1
 25381 28606 28607    1
 25382 28606 28608    1
 25383 28609 28610    1
 25384 28609 28611    1
 25385 28612 28613    1
 25386 28612 28614    1
 25387 28615 28616    1
 25388 28615 28617    1
 25389 28618 28619    1
 25390 28618 28620    1
 25391 28621 28622    1
 25392 28621 28623    1
 25393 28624 28625    1
 25394 28624 28626    1
 25395 28627 28628    1
 25396 28627 28629    1
 25397 28630 28631    1
 25398 28630 28632    1
 25399 28633 28634    1
 25400 28633 28635    1
 25401 28636 28637    1
 25402 28636 28638    1
 25403 28639 28640    1
 25404 28639 28641    1
 25405 28642 28643    1
 25406 28642 28644    1
 25407 28645 28646    1
 25408 28645 28647    1
 25409 28648 28649    1
 25410 28648 28650    1
 25411 28651 28652    1
 25412 28651 28653    1
 25413 28654 28655    1
 25414 28654 28656    1
 25415 28657 28658    1
 25416 28657 28659    1
 25417 28660 28661    1
 25418 28660 28662    1
 25419 28663 28664    1
 25420 28663 28665    1
 25421 28666 28667    1
 25422 28666 28668    1
 25423 28669 28670    1
 25424 28669 28671    1
 25425 28672 28673    1
 25426 28672 28674    1
 25427 28675 28676    1
 25428 28675 28677    1
 25429 28678 28679    1
 25430 28678 28680    1
 25431 28681 28682    1
 25432 28681 28683    1
 25433 28684 28685    1
 25434 28684 28686    1
 25435 28687 28688    1
 25436 28687 28689    1
 25437 28690 28691    1
 25438 28690 28692    1
 25439 28693 28694    1
 25440 28693 28695    1
 25441 28696 28697    1
 25442 28696 28698    1
 25443 28699 28700    1
 25444 28699 28701    1
 25445 28702 28703    1
 25446 28702 28704    1
 25447 28705 28706    1
 25448 28705 28707    1
 25449 28708 28709    1
 25450 28708 28710    1
 25451 28711 28712    1
 25452 28711 28713    1
 25453 28714 28715    1
 25454 28714 28716    1
 25455 28717 28718    1
 25456 28717 28719    1
 25457 28720 28721    1
 25458 28720 28722    1
 25459 28723 28724    1
 25460 28723 28725    1
 25461 28726 28727    1
 25462 28726 28728    1
 25463 28729 28730    1
 25464 28729 28731    1
 25465 28732 28733    1
 25466 28732 28734    1
 25467 28735 28736    1
 25468 28735 28737    1
 25469 28738 28739    1
 25470 28738 28740    1
 25471 28741 28742    1
 25472 28741 28743    1
 25473 28744 28745    1
 25474 28744 28746    1
 25475 28747 28748    1
 25476 28747 28749    1
 25477 28750 28751    1
 25478 28750 28752    1
 25479 28753 28754    1
 25480 28753 28755    1
 25481 28756 28757    1
 25482 28756 28758    1
 25483 28759 28760    1
 25484 28759 28761    1
 25485 28762 28763    1
 25486 28762 28764    1
 25487 28765 28766    1
 25488 28765 28767    1
 25489 28768 28769    1
 25490 28768 28770    1
 25491 28771 28772    1
 25492 28771 28773    1
 25493 28774 28775    1
 25494 28774 28776    1
 25495 28777 28778    1
 25496 28777 28779    1
 25497 28780 28781    1
 25498 28780 28782    1
 25499 28783 28784    1
 25500 28783 28785    1
 25501 28786 28787    1
 25502 28786 28788    1
 25503 28789 28790    1
 25504 28789 28791    1
 25505 28792 28793    1
 25506 28792 28794    1
 25507 28795 28796    1
 25508 28795 28797    1
 25509 28798 28799    1
 25510 28798 28800    1
 25511 28801 28802    1
 25512 28801 28803    1
 25513 28804 28805    1
 25514 28804 28806    1
 25515 28807 28808    1
 25516 28807 28809    1
 25517 28810 28811    1
 25518 28810 28812    1
 25519 28813 28814    1
 25520 28813 28815    1
 25521 28816 28817    1
 25522 28816 28818    1
 25523 28819 28820    1
 25524 28819 28821    1
 25525 28822 28823    1
 25526 28822 28824    1
 25527 28825 28826    1
 25528 28825 28827    1
 25529 28828 28829    1
 25530 28828 28830    1
 25531 28831 28832    1
 25532 28831 28833    1
 25533 28834 28835    1
 25534 28834 28836    1
 25535 28837 28838    1
 25536 28837 28839    1
 25537 28840 28841    1
 25538 28840 28842    1
 25539 28843 28844    1
 25540 28843 28845    1
 25541 28846 28847    1
 25542 28846 28848    1
 25543 28849 28850    1
 25544 28849 28851    1
 25545 28852 28853    1
 25546 28852 28854    1
 25547 28855 28856    1
 25548 28855 28857    1
 25549 28858 28859    1
 25550 28858 28860    1
 25551 28861 28862    1
 25552 28861 28863    1
 25553 28864 28865    1
 25554 28864 28866    1
 25555 28867 28868    1
 25556 28867 28869    1
 25557 28870 28871    1
 25558 28870 28872    1
 25559 28873 28874    1
 25560 28873 28875    1
 25561 28876 28877    1
 25562 28876 28878    1
 25563 28879 28880    1
 25564 28879 28881    1
 25565 28882 28883    1
 25566 28882 28884    1
 25567 28885 28886    1
 25568 28885 28887    1
 25569 28888 28889    1
 25570 28888 28890    1
 25571 28891 28892    1
 25572 28891 28893    1
 25573 28894 28895    1
 25574 28894 28896    1
 25575 28897 28898    1
 25576 28897 28899    1
 25577 28900 28901    1
 25578 28900 28902    1
 25579 28903 28904    1
 25580 28903 28905    1
 25581 28906 28907    1
 25582 28906 28908    1
 25583 28909 28910    1
 25584 28909 28911    1
 25585 28912 28913    1
 25586 28912 28914    1
 25587 28915 28916    1
 25588 28915 28917    1
 25589 28918 28919    1
 25590 28918 28920    1
 25591 28921 28922    1
 25592 28921 28923    1
 25593 28924 28925    1
 25594 28924 28926    1
 25595 28927 28928    1
 25596 28927 28929    1
 25597 28930 28931    1
 25598 28930 28932    1
 25599 28933 28934    1
 25600 28933 28935    1
 25601 28936 28937    1
 25602 28936 28938    1
 25603 28939 28940    1
 25604 28939 28941    1
 25605 28942 28943    1
 25606 28942 28944    1
 25607 28945 28946    1
 25608 28945 28947    1
 25609 28948 28949    1
 25610 28948 28950    1
 25611 28951 28952    1
 25612 28951 28953    1
 25613 28954 28955    1
 25614 28954 28956    1
 25615 28957 28958    1
 25616 28957 28959    1
 25617 28960 28961    1
 25618 28960 28962    1
 25619 28963 28964    1
 25620 28963 28965    1
 25621 28966 28967    1
 25622 28966 28968    1
 25623 28969 28970    1
 25624 28969 28971    1
 25625 28972 28973    1
 25626 28972 28974    1
 25627 28975 28976    1
 25628 28975 28977    1
 25629 28978 28979    1
 25630 28978 28980    1
 25631 28981 28982    1
 25632 28981 28983    1
 25633 28984 28985    1
 25634 28984 28986    1
 25635 28987 28988    1
 25636 28987 28989    1
 25637 28990 28991    1
 25638 28990 28992    1
 25639 28993 28994    1
 25640 28993 28995    1
 25641 28996 28997    1
 25642 28996 28998    1
 25643 28999 29000    1
 25644 28999 29001    1
 25645 29002 29003    1
 25646 29002 29004    1
 25647 29005 29006    1
 25648 29005 29007    1
 25649 29008 29009    1
 25650 29008 29010    1
 25651 29011 29012    1
 25652 29011 29013    1
 25653 29014 29015    1
 25654 29014 29016    1
 25655 29017 29018    1
 25656 29017 29019    1
 25657 29020 29021    1
 25658 29020 29022    1
 25659 29023 29024    1
 25660 29023 29025    1
 25661 29026 29027    1
 25662 29026 29028    1
 25663 29029 29030    1
 25664 29029 29031    1
 25665 29032 29033    1
 25666 29032 29034    1
 25667 29035 29036    1
 25668 29035 29037    1
 25669 29038 29039    1
 25670 29038 29040    1
 25671 29041 29042    1
 25672 29041 29043    1
 25673 29044 29045    1
 25674 29044 29046    1
 25675 29047 29048    1
 25676 29047 29049    1
 25677 29050 29051    1
 25678 29050 29052    1
 25679 29053 29054    1
 25680 29053 29055    1
 25681 29056 29057    1
 25682 29056 29058    1
 25683 29059 29060    1
 25684 29059 29061    1
 25685 29062 29063    1
 25686 29062 29064    1
 25687 29065 29066    1
 25688 29065 29067    1
 25689 29068 29069    1
 25690 29068 29070    1
 25691 29071 29072    1
 25692 29071 29073    1
 25693 29074 29075    1
 25694 29074 29076    1
 25695 29077 29078    1
 25696 29077 29079    1
 25697 29080 29081    1
 25698 29080 29082    1
 25699 29083 29084    1
 25700 29083 29085    1
 25701 29086 29087    1
 25702 29086 29088    1
 25703 29089 29090    1
 25704 29089 29091    1
 25705 29092 29093    1
 25706 29092 29094    1
 25707 29095 29096    1
 25708 29095 29097    1
 25709 29098 29099    1
 25710 29098 29100    1
 25711 29101 29102    1
 25712 29101 29103    1
 25713 29104 29105    1
 25714 29104 29106    1
 25715 29107 29108    1
 25716 29107 29109    1
 25717 29110 29111    1
 25718 29110 29112    1
 25719 29113 29114    1
 25720 29113 29115    1
 25721 29116 29117    1
 25722 29116 29118    1
 25723 29119 29120    1
 25724 29119 29121    1
 25725 29122 29123    1
 25726 29122 29124    1
 25727 29125 29126    1
 25728 29125 29127    1
 25729 29128 29129    1
 25730 29128 29130    1
 25731 29131 29132    1
 25732 29131 29133    1
 25733 29134 29135    1
 25734 29134 29136    1
 25735 29137 29138    1
 25736 29137 29139    1
 25737 29140 29141    1
 25738 29140 29142    1
 25739 29143 29144    1
 25740 29143 29145    1
 25741 29146 29147    1
 25742 29146 29148    1
 25743 29149 29150    1
 25744 29149 29151    1
 25745 29152 29153    1
 25746 29152 29154    1
 25747 29155 29156    1
 25748 29155 29157    1
 25749 29158 29159    1
 25750 29158 29160    1
 25751 29161 29162    1
 25752 29161 29163    1
 25753 29164 29165    1
 25754 29164 29166    1
 25755 29167 29168    1
 25756 29167 29169    1
 25757 29170 29171    1
 25758 29170 29172    1
 25759 29173 29174    1
 25760 29173 29175    1
 25761 29176 29177    1
 25762 29176 29178    1
 25763 29179 29180    1
 25764 29179 29181    1
 25765 29182 29183    1
 25766 29182 29184    1
 25767 29185 29186    1
 25768 29185 29187    1
 25769 29188 29189    1
 25770 29188 29190    1
 25771 29191 29192    1
 25772 29191 29193    1
 25773 29194 29195    1
 25774 29194 29196    1
 25775 29197 29198    1
 25776 29197 29199    1
 25777 29200 29201    1
 25778 29200 29202    1
 25779 29203 29204    1
 25780 29203 29205    1
 25781 29206 29207    1
 25782 29206 29208    1
 25783 29209 29210    1
 25784 29209 29211    1
 25785 29212 29213    1
 25786 29212 29214    1
 25787 29215 29216    1
 25788 29215 29217    1
 25789 29218 29219    1
 25790 29218 29220    1
 25791 29221 29222    1
 25792 29221 29223    1
 25793 29224 29225    1
 25794 29224 29226    1
 25795 29227 29228    1
 25796 29227 29229    1
 25797 29230 29231    1
 25798 29230 29232    1
 25799 29233 29234    1
 25800 29233 29235    1
 25801 29236 29237    1
 25802 29236 29238    1
 25803 29239 29240    1
 25804 29239 29241    1
 25805 29242 29243    1
 25806 29242 29244    1
 25807 29245 29246    1
 25808 29245 29247    1
 25809 29248 29249    1
 25810 29248 29250    1
 25811 29251 29252    1
 25812 29251 29253    1
 25813 29254 29255    1
 25814 29254 29256    1
 25815 29257 29258    1
 25816 29257 29259    1
 25817 29260 29261    1
 25818 29260 29262    1
 25819 29263 29264    1
 25820 29263 29265    1
 25821 29266 29267    1
 25822 29266 29268    1
 25823 29269 29270    1
 25824 29269 29271    1
 25825 29272 29273    1
 25826 29272 29274    1
 25827 29275 29276    1
 25828 29275 29277    1
 25829 29278 29279    1
 25830 29278 29280    1
 25831 29281 29282    1
 25832 29281 29283    1
 25833 29284 29285    1
 25834 29284 29286    1
 25835 29287 29288    1
 25836 29287 29289    1
 25837 29290 29291    1
 25838 29290 29292    1
 25839 29293 29294    1
 25840 29293 29295    1
 25841 29296 29297    1
 25842 29296 29298    1
 25843 29299 29300    1
 25844 29299 29301    1
 25845 29302 29303    1
 25846 29302 29304    1
 25847 29305 29306    1
 25848 29305 29307    1
 25849 29308 29309    1
 25850 29308 29310    1
 25851 29311 29312    1
 25852 29311 29313    1
 25853 29314 29315    1
 25854 29314 29316    1
 25855 29317 29318    1
 25856 29317 29319    1
 25857 29320 29321    1
 25858 29320 29322    1
 25859 29323 29324    1
 25860 29323 29325    1
 25861 29326 29327    1
 25862 29326 29328    1
 25863 29329 29330    1
 25864 29329 29331    1
 25865 29332 29333    1
 25866 29332 29334    1
 25867 29335 29336    1
 25868 29335 29337    1
 25869 29338 29339    1
 25870 29338 29340    1
 25871 29341 29342    1
 25872 29341 29343    1
 25873 29344 29345    1
 25874 29344 29346    1
 25875 29347 29348    1
 25876 29347 29349    1
 25877 29350 29351    1
 25878 29350 29352    1
 25879 29353 29354    1
 25880 29353 29355    1
 25881 29356 29357    1
 25882 29356 29358    1
 25883 29359 29360    1
 25884 29359 29361    1
 25885 29362 29363    1
 25886 29362 29364    1
 25887 29365 29366    1
 25888 29365 29367    1
 25889 29368 29369    1
 25890 29368 29370    1
 25891 29371 29372    1
 25892 29371 29373    1
 25893 29374 29375    1
 25894 29374 29376    1
 25895 29377 29378    1
 25896 29377 29379    1
 25897 29380 29381    1
 25898 29380 29382    1
 25899 29383 29384    1
 25900 29383 29385    1
 25901 29386 29387    1
 25902 29386 29388    1
 25903 29389 29390    1
 25904 29389 29391    1
 25905 29392 29393    1
 25906 29392 29394    1
 25907 29395 29396    1
 25908 29395 29397    1
 25909 29398 29399    1
 25910 29398 29400    1
 25911 29401 29402    1
 25912 29401 29403    1
 25913 29404 29405    1
 25914 29404 29406    1
 25915 29407 29408    1
 25916 29407 29409    1
 25917 29410 29411    1
 25918 29410 29412    1
 25919 29413 29414    1
 25920 29413 29415    1
 25921 29416 29417    1
 25922 29416 29418    1
 25923 29419 29420    1
 25924 29419 29421    1
 25925 29422 29423    1
 25926 29422 29424    1
 25927 29425 29426    1
 25928 29425 29427    1
 25929 29428 29429    1
 25930 29428 29430    1
 25931 29431 29432    1
 25932 29431 29433    1
 25933 29434 29435    1
 25934 29434 29436    1
 25935 29437 29438    1
 25936 29437 29439    1
 25937 29440 29441    1
 25938 29440 29442    1
 25939 29443 29444    1
 25940 29443 29445    1
 25941 29446 29447    1
 25942 29446 29448    1
 25943 29449 29450    1
 25944 29449 29451    1
 25945 29452 29453    1
 25946 29452 29454    1
 25947 29455 29456    1
 25948 29455 29457    1
 25949 29458 29459    1
 25950 29458 29460    1
 25951 29461 29462    1
 25952 29461 29463    1
 25953 29464 29465    1
 25954 29464 29466    1
 25955 29467 29468    1
 25956 29467 29469    1
 25957 29470 29471    1
 25958 29470 29472    1
 25959 29473 29474    1
 25960 29473 29475    1
 25961 29476 29477    1
 25962 29476 29478    1
 25963 29479 29480    1
 25964 29479 29481    1
 25965 29482 29483    1
 25966 29482 29484    1
 25967 29485 29486    1
 25968 29485 29487    1
 25969 29488 29489    1
 25970 29488 29490    1
 25971 29491 29492    1
 25972 29491 29493    1
 25973 29494 29495    1
 25974 29494 29496    1
 25975 29497 29498    1
 25976 29497 29499    1
 25977 29500 29501    1
 25978 29500 29502    1
 25979 29503 29504    1
 25980 29503 29505    1
 25981 29506 29507    1
 25982 29506 29508    1
 25983 29509 29510    1
 25984 29509 29511    1
 25985 29512 29513    1
 25986 29512 29514    1
 25987 29515 29516    1
 25988 29515 29517    1
 25989 29518 29519    1
 25990 29518 29520    1
 25991 29521 29522    1
 25992 29521 29523    1
 25993 29524 29525    1
 25994 29524 29526    1
 25995 29527 29528    1
 25996 29527 29529    1
 25997 29530 29531    1
 25998 29530 29532    1
 25999 29533 29534    1
 26000 29533 29535    1
 26001 29536 29537    1
 26002 29536 29538    1
 26003 29539 29540    1
 26004 29539 29541    1
 26005 29542 29543    1
 26006 29542 29544    1
 26007 29545 29546    1
 26008 29545 29547    1
 26009 29548 29549    1
 26010 29548 29550    1
 26011 29551 29552    1
 26012 29551 29553    1
 26013 29554 29555    1
 26014 29554 29556    1
 26015 29557 29558    1
 26016 29557 29559    1
 26017 29560 29561    1
 26018 29560 29562    1
 26019 29563 29564    1
 26020 29563 29565    1
 26021 29566 29567    1
 26022 29566 29568    1
 26023 29569 29570    1
 26024 29569 29571    1
 26025 29572 29573    1
 26026 29572 29574    1
 26027 29575 29576    1
 26028 29575 29577    1
 26029 29578 29579    1
 26030 29578 29580    1
 26031 29581 29582    1
 26032 29581 29583    1
 26033 29584 29585    1
 26034 29584 29586    1
 26035 29587 29588    1
 26036 29587 29589    1
 26037 29590 29591    1
 26038 29590 29592    1
 26039 29593 29594    1
 26040 29593 29595    1
 26041 29596 29597    1
 26042 29596 29598    1
 26043 29599 29600    1
 26044 29599 29601    1
 26045 29602 29603    1
 26046 29602 29604    1
 26047 29605 29606    1
 26048 29605 29607    1
 26049 29608 29609    1
 26050 29608 29610    1
 26051 29611 29612    1
 26052 29611 29613    1
 26053 29614 29615    1
 26054 29614 29616    1
 26055 29617 29618    1
 26056 29617 29619    1
 26057 29620 29621    1
 26058 29620 29622    1
 26059 29623 29624    1
 26060 29623 29625    1
 26061 29626 29627    1
 26062 29626 29628    1
 26063 29629 29630    1
 26064 29629 29631    1
 26065 29632 29633    1
 26066 29632 29634    1
 26067 29635 29636    1
 26068 29635 29637    1
 26069 29638 29639    1
 26070 29638 29640    1
 26071 29641 29642    1
 26072 29641 29643    1
 26073 29644 29645    1
 26074 29644 29646    1
 26075 29647 29648    1
 26076 29647 29649    1
 26077 29650 29651    1
 26078 29650 29652    1
 26079 29653 29654    1
 26080 29653 29655    1
 26081 29656 29657    1
 26082 29656 29658    1
 26083 29659 29660    1
 26084 29659 29661    1
 26085 29662 29663    1
 26086 29662 29664    1
 26087 29665 29666    1
 26088 29665 29667    1
 26089 29668 29669    1
 26090 29668 29670    1
 26091 29671 29672    1
 26092 29671 29673    1
 26093 29674 29675    1
 26094 29674 29676    1
 26095 29677 29678    1
 26096 29677 29679    1
 26097 29680 29681    1
 26098 29680 29682    1
 26099 29683 29684    1
 26100 29683 29685    1
 26101 29686 29687    1
 26102 29686 29688    1
 26103 29689 29690    1
 26104 29689 29691    1
 26105 29692 29693    1
 26106 29692 29694    1
 26107 29695 29696    1
 26108 29695 29697    1
 26109 29698 29699    1
 26110 29698 29700    1
 26111 29701 29702    1
 26112 29701 29703    1
 26113 29704 29705    1
 26114 29704 29706    1
 26115 29707 29708    1
 26116 29707 29709    1
 26117 29710 29711    1
 26118 29710 29712    1
 26119 29713 29714    1
 26120 29713 29715    1
 26121 29716 29717    1
 26122 29716 29718    1
 26123 29719 29720    1
 26124 29719 29721    1
 26125 29722 29723    1
 26126 29722 29724    1
 26127 29725 29726    1
 26128 29725 29727    1
 26129 29728 29729    1
 26130 29728 29730    1
 26131 29731 29732    1
 26132 29731 29733    1
 26133 29734 29735    1
 26134 29734 29736    1
 26135 29737 29738    1
 26136 29737 29739    1
 26137 29740 29741    1
 26138 29740 29742    1
 26139 29743 29744    1
 26140 29743 29745    1
 26141 29746 29747    1
 26142 29746 29748    1
 26143 29749 29750    1
 26144 29749 29751    1
 26145 29752 29753    1
 26146 29752 29754    1
 26147 29755 29756    1
 26148 29755 29757    1
 26149 29758 29759    1
 26150 29758 29760    1
 26151 29761 29762    1
 26152 29761 29763    1
 26153 29764 29765    1
 26154 29764 29766    1
 26155 29767 29768    1
 26156 29767 29769    1
 26157 29770 29771    1
 26158 29770 29772    1
 26159 29773 29774    1
 26160 29773 29775    1
 26161 29776 29777    1
 26162 29776 29778    1
 26163 29779 29780    1
 26164 29779 29781    1
 26165 29782 29783    1
 26166 29782 29784    1
 26167 29785 29786    1
 26168 29785 29787    1
 26169 29788 29789    1
 26170 29788 29790    1
 26171 29791 29792    1
 26172 29791 29793    1
 26173 29794 29795    1
 26174 29794 29796    1
 26175 29797 29798    1
 26176 29797 29799    1
 26177 29800 29801    1
 26178 29800 29802    1
 26179 29803 29804    1
 26180 29803 29805    1
 26181 29806 29807    1
 26182 29806 29808    1
 26183 29809 29810    1
 26184 29809 29811    1
 26185 29812 29813    1
 26186 29812 29814    1
 26187 29815 29816    1
 26188 29815 29817    1
 26189 29818 29819    1
 26190 29818 29820    1
 26191 29821 29822    1
 26192 29821 29823    1
 26193 29824 29825    1
 26194 29824 29826    1
 26195 29827 29828    1
 26196 29827 29829    1
 26197 29830 29831    1
 26198 29830 29832    1
 26199 29833 29834    1
 26200 29833 29835    1
 26201 29836 29837    1
 26202 29836 29838    1
 26203 29839 29840    1
 26204 29839 29841    1
 26205 29842 29843    1
 26206 29842 29844    1
 26207 29845 29846    1
 26208 29845 29847    1
 26209 29848 29849    1
 26210 29848 29850    1
 26211 29851 29852    1
 26212 29851 29853    1
 26213 29854 29855    1
 26214 29854 29856    1
 26215 29857 29858    1
 26216 29857 29859    1
 26217 29860 29861    1
 26218 29860 29862    1
 26219 29863 29864    1
 26220 29863 29865    1
 26221 29866 29867    1
 26222 29866 29868    1
 26223 29869 29870    1
 26224 29869 29871    1
 26225 29872 29873    1
 26226 29872 29874    1
 26227 29875 29876    1
 26228 29875 29877    1
 26229 29878 29879    1
 26230 29878 29880    1
 26231 29881 29882    1
 26232 29881 29883    1
 26233 29884 29885    1
 26234 29884 29886    1
 26235 29887 29888    1
 26236 29887 29889    1
 26237 29890 29891    1
 26238 29890 29892    1
 26239 29893 29894    1
 26240 29893 29895    1
 26241 29896 29897    1
 26242 29896 29898    1
 26243 29899 29900    1
 26244 29899 29901    1
 26245 29902 29903    1
 26246 29902 29904    1
 26247 29905 29906    1
 26248 29905 29907    1
 26249 29908 29909    1
 26250 29908 29910    1
 26251 29911 29912    1
 26252 29911 29913    1
 26253 29914 29915    1
 26254 29914 29916    1
 26255 29917 29918    1
 26256 29917 29919    1
 26257 29920 29921    1
 26258 29920 29922    1
 26259 29923 29924    1
 26260 29923 29925    1
 26261 29926 29927    1
 26262 29926 29928    1
 26263 29929 29930    1
 26264 29929 29931    1
 26265 29932 29933    1
 26266 29932 29934    1
 26267 29935 29936    1
 26268 29935 29937    1
 26269 29938 29939    1
 26270 29938 29940    1
 26271 29941 29942    1
 26272 29941 29943    1
 26273 29944 29945    1
 26274 29944 29946    1
 26275 29947 29948    1
 26276 29947 29949    1
 26277 29950 29951    1
 26278 29950 29952    1
 26279 29953 29954    1
 26280 29953 29955    1
 26281 29956 29957    1
 26282 29956 29958    1
 26283 29959 29960    1
 26284 29959 29961    1
 26285 29962 29963    1
 26286 29962 29964    1
 26287 29965 29966    1
 26288 29965 29967    1
 26289 29968 29969    1
 26290 29968 29970    1
 26291 29971 29972    1
 26292 29971 29973    1
 26293 29974 29975    1
 26294 29974 29976    1
 26295 29977 29978    1
 26296 29977 29979    1
 26297 29980 29981    1
 26298 29980 29982    1
 26299 29983 29984    1
 26300 29983 29985    1
 26301 29986 29987    1
 26302 29986 29988    1
 26303 29989 29990    1
 26304 29989 29991    1
 26305 29992 29993    1
 26306 29992 29994    1
 26307 29995 29996    1
 26308 29995 29997    1
 26309 29998 29999    1
 26310 29998 30000    1
 26311 30001 30002    1
 26312 30001 30003    1
 26313 30004 30005    1
 26314 30004 30006    1
 26315 30007 30008    1
 26316 30007 30009    1
 26317 30010 30011    1
 26318 30010 30012    1
 26319 30013 30014    1
 26320 30013 30015    1
 26321 30016 30017    1
 26322 30016 30018    1
 26323 30019 30020    1
 26324 30019 30021    1
 26325 30022 30023    1
 26326 30022 30024    1
 26327 30025 30026    1
 26328 30025 30027    1
 26329 30028 30029    1
 26330 30028 30030    1
 26331 30031 30032    1
 26332 30031 30033    1
 26333 30034 30035    1
 26334 30034 30036    1
 26335 30037 30038    1
 26336 30037 30039    1
 26337 30040 30041    1
 26338 30040 30042    1
 26339 30043 30044    1
 26340 30043 30045    1
 26341 30046 30047    1
 26342 30046 30048    1
 26343 30049 30050    1
 26344 30049 30051    1
 26345 30052 30053    1
 26346 30052 30054    1
 26347 30055 30056    1
 26348 30055 30057    1
 26349 30058 30059    1
 26350 30058 30060    1
 26351 30061 30062    1
 26352 30061 30063    1
 26353 30064 30065    1
 26354 30064 30066    1
 26355 30067 30068    1
 26356 30067 30069    1
 26357 30070 30071    1
 26358 30070 30072    1
 26359 30073 30074    1
 26360 30073 30075    1
 26361 30076 30077    1
 26362 30076 30078    1
 26363 30079 30080    1
 26364 30079 30081    1
 26365 30082 30083    1
 26366 30082 30084    1
 26367 30085 30086    1
 26368 30085 30087    1
 26369 30088 30089    1
 26370 30088 30090    1
 26371 30091 30092    1
 26372 30091 30093    1
 26373 30094 30095    1
 26374 30094 30096    1
 26375 30097 30098    1
 26376 30097 30099    1
 26377 30100 30101    1
 26378 30100 30102    1
 26379 30103 30104    1
 26380 30103 30105    1
 26381 30106 30107    1
 26382 30106 30108    1
 26383 30109 30110    1
 26384 30109 30111    1
 26385 30112 30113    1
 26386 30112 30114    1
 26387 30115 30116    1
 26388 30115 30117    1
 26389 30118 30119    1
 26390 30118 30120    1
 26391 30121 30122    1
 26392 30121 30123    1
 26393 30124 30125    1
 26394 30124 30126    1
 26395 30127 30128    1
 26396 30127 30129    1
 26397 30130 30131    1
 26398 30130 30132    1
 26399 30133 30134    1
 26400 30133 30135    1
 26401 30136 30137    1
 26402 30136 30138    1
 26403 30139 30140    1
 26404 30139 30141    1
 26405 30142 30143    1
 26406 30142 30144    1
 26407 30145 30146    1
 26408 30145 30147    1
 26409 30148 30149    1
 26410 30148 30150    1
 26411 30151 30152    1
 26412 30151 30153    1
 26413 30154 30155    1
 26414 30154 30156    1
 26415 30157 30158    1
 26416 30157 30159    1
 26417 30160 30161    1
 26418 30160 30162    1
 26419 30163 30164    1
 26420 30163 30165    1
 26421 30166 30167    1
 26422 30166 30168    1
 26423 30169 30170    1
 26424 30169 30171    1
 26425 30172 30173    1
 26426 30172 30174    1
 26427 30175 30176    1
 26428 30175 30177    1
 26429 30178 30179    1
 26430 30178 30180    1
 26431 30181 30182    1
 26432 30181 30183    1
 26433 30184 30185    1
 26434 30184 30186    1
 26435 30187 30188    1
 26436 30187 30189    1
 26437 30190 30191    1
 26438 30190 30192    1
 26439 30193 30194    1
 26440 30193 30195    1
 26441 30196 30197    1
 26442 30196 30198    1
 26443 30199 30200    1
 26444 30199 30201    1
 26445 30202 30203    1
 26446 30202 30204    1
 26447 30205 30206    1
 26448 30205 30207    1
 26449 30208 30209    1
 26450 30208 30210    1
 26451 30211 30212    1
 26452 30211 30213    1
 26453 30214 30215    1
 26454 30214 30216    1
 26455 30217 30218    1
 26456 30217 30219    1
 26457 30220 30221    1
 26458 30220 30222    1
 26459 30223 30224    1
 26460 30223 30225    1
 26461 30226 30227    1
 26462 30226 30228    1
 26463 30229 30230    1
 26464 30229 30231    1
 26465 30232 30233    1
 26466 30232 30234    1
 26467 30235 30236    1
 26468 30235 30237    1
 26469 30238 30239    1
 26470 30238 30240    1
 26471 30241 30242    1
 26472 30241 30243    1
 26473 30244 30245    1
 26474 30244 30246    1
 26475 30247 30248    1
 26476 30247 30249    1
 26477 30250 30251    1
 26478 30250 30252    1
 26479 30253 30254    1
 26480 30253 30255    1
 26481 30256 30257    1
 26482 30256 30258    1
 26483 30259 30260    1
 26484 30259 30261    1
 26485 30262 30263    1
 26486 30262 30264    1
 26487 30265 30266    1
 26488 30265 30267    1
 26489 30268 30269    1
 26490 30268 30270    1
 26491 30271 30272    1
 26492 30271 30273    1
 26493 30274 30275    1
 26494 30274 30276    1
 26495 30277 30278    1
 26496 30277 30279    1
 26497 30280 30281    1
 26498 30280 30282    1
 26499 30283 30284    1
 26500 30283 30285    1
 26501 30286 30287    1
 26502 30286 30288    1
 26503 30289 30290    1
 26504 30289 30291    1
 26505 30292 30293    1
 26506 30292 30294    1
 26507 30295 30296    1
 26508 30295 30297    1
 26509 30298 30299    1
 26510 30298 30300    1
 26511 30301 30302    1
 26512 30301 30303    1
 26513 30304 30305    1
 26514 30304 30306    1
 26515 30307 30308    1
 26516 30307 30309    1
 26517 30310 30311    1
 26518 30310 30312    1
 26519 30313 30314    1
 26520 30313 30315    1
 26521 30316 30317    1
 26522 30316 30318    1
 26523 30319 30320    1
 26524 30319 30321    1
 26525 30322 30323    1
 26526 30322 30324    1
 26527 30325 30326    1
 26528 30325 30327    1
 26529 30328 30329    1
 26530 30328 30330    1
 26531 30331 30332    1
 26532 30331 30333    1
 26533 30334 30335    1
 26534 30334 30336    1
 26535 30337 30338    1
 26536 30337 30339    1
 26537 30340 30341    1
 26538 30340 30342    1
 26539 30343 30344    1
 26540 30343 30345    1
 26541 30346 30347    1
 26542 30346 30348    1
 26543 30349 30350    1
 26544 30349 30351    1
 26545 30352 30353    1
 26546 30352 30354    1
 26547 30355 30356    1
 26548 30355 30357    1
 26549 30358 30359    1
 26550 30358 30360    1
 26551 30361 30362    1
 26552 30361 30363    1
 26553 30364 30365    1
 26554 30364 30366    1
 26555 30367 30368    1
 26556 30367 30369    1
 26557 30370 30371    1
 26558 30370 30372    1
 26559 30373 30374    1
 26560 30373 30375    1
 26561 30376 30377    1
 26562 30376 30378    1
 26563 30379 30380    1
 26564 30379 30381    1
 26565 30382 30383    1
 26566 30382 30384    1
 26567 30385 30386    1
 26568 30385 30387    1
 26569 30388 30389    1
 26570 30388 30390    1
 26571 30391 30392    1
 26572 30391 30393    1
 26573 30394 30395    1
 26574 30394 30396    1
 26575 30397 30398    1
 26576 30397 30399    1
 26577 30400 30401    1
 26578 30400 30402    1
 26579 30403 30404    1
 26580 30403 30405    1
 26581 30406 30407    1
 26582 30406 30408    1
 26583 30409 30410    1
 26584 30409 30411    1
 26585 30412 30413    1
 26586 30412 30414    1
 26587 30415 30416    1
 26588 30415 30417    1
 26589 30418 30419    1
 26590 30418 30420    1
 26591 30421 30422    1
 26592 30421 30423    1
 26593 30424 30425    1
 26594 30424 30426    1
 26595 30427 30428    1
 26596 30427 30429    1
 26597 30430 30431    1
 26598 30430 30432    1
 26599 30433 30434    1
 26600 30433 30435    1
 26601 30436 30437    1
 26602 30436 30438    1
 26603 30439 30440    1
 26604 30439 30441    1
 26605 30442 30443    1
 26606 30442 30444    1
 26607 30445 30446    1
 26608 30445 30447    1
 26609 30448 30449    1
 26610 30448 30450    1
 26611 30451 30452    1
 26612 30451 30453    1
 26613 30454 30455    1
 26614 30454 30456    1
 26615 30457 30458    1
 26616 30457 30459    1
 26617 30460 30461    1
 26618 30460 30462    1
 26619 30463 30464    1
 26620 30463 30465    1
 26621 30466 30467    1
 26622 30466 30468    1
 26623 30469 30470    1
 26624 30469 30471    1
 26625 30472 30473    1
 26626 30472 30474    1
 26627 30475 30476    1
 26628 30475 30477    1
 26629 30478 30479    1
 26630 30478 30480    1
 26631 30481 30482    1
 26632 30481 30483    1
 26633 30484 30485    1
 26634 30484 30486    1
 26635 30487 30488    1
 26636 30487 30489    1
 26637 30490 30491    1
 26638 30490 30492    1
 26639 30493 30494    1
 26640 30493 30495    1
 26641 30496 30497    1
 26642 30496 30498    1
 26643 30499 30500    1
 26644 30499 30501    1
 26645 30502 30503    1
 26646 30502 30504    1
 26647 30505 30506    1
 26648 30505 30507    1
 26649 30508 30509    1
 26650 30508 30510    1
 26651 30511 30512    1
 26652 30511 30513    1
 26653 30514 30515    1
 26654 30514 30516    1
 26655 30517 30518    1
 26656 30517 30519    1
 26657 30520 30521    1
 26658 30520 30522    1
 26659 30523 30524    1
 26660 30523 30525    1
 26661 30526 30527    1
 26662 30526 30528    1
 26663 30529 30530    1
 26664 30529 30531    1
 26665 30532 30533    1
 26666 30532 30534    1
 26667 30535 30536    1
 26668 30535 30537    1
 26669 30538 30539    1
 26670 30538 30540    1
 26671 30541 30542    1
 26672 30541 30543    1
 26673 30544 30545    1
 26674 30544 30546    1
 26675 30547 30548    1
 26676 30547 30549    1
 26677 30550 30551    1
 26678 30550 30552    1
 26679 30553 30554    1
 26680 30553 30555    1
 26681 30556 30557    1
 26682 30556 30558    1
 26683 30559 30560    1
 26684 30559 30561    1
 26685 30562 30563    1
 26686 30562 30564    1
 26687 30565 30566    1
 26688 30565 30567    1
 26689 30568 30569    1
 26690 30568 30570    1
 26691 30571 30572    1
 26692 30571 30573    1
 26693 30574 30575    1
 26694 30574 30576    1
 26695 30577 30578    1
 26696 30577 30579    1
 26697 30580 30581    1
 26698 30580 30582    1
 26699 30583 30584    1
 26700 30583 30585    1
 26701 30586 30587    1
 26702 30586 30588    1
 26703 30589 30590    1
 26704 30589 30591    1
 26705 30592 30593    1
 26706 30592 30594    1
 26707 30595 30596    1
 26708 30595 30597    1
 26709 30598 30599    1
 26710 30598 30600    1
 26711 30601 30602    1
 26712 30601 30603    1
 26713 30604 30605    1
 26714 30604 30606    1
 26715 30607 30608    1
 26716 30607 30609    1
 26717 30610 30611    1
 26718 30610 30612    1
 26719 30613 30614    1
 26720 30613 30615    1
 26721 30616 30617    1
 26722 30616 30618    1
 26723 30619 30620    1
 26724 30619 30621    1
 26725 30622 30623    1
 26726 30622 30624    1
 26727 30625 30626    1
 26728 30625 30627    1
 26729 30628 30629    1
 26730 30628 30630    1
 26731 30631 30632    1
 26732 30631 30633    1
 26733 30634 30635    1
 26734 30634 30636    1
 26735 30637 30638    1
 26736 30637 30639    1
 26737 30640 30641    1
 26738 30640 30642    1
 26739 30643 30644    1
 26740 30643 30645    1
 26741 30646 30647    1
 26742 30646 30648    1
 26743 30649 30650    1
 26744 30649 30651    1
 26745 30652 30653    1
 26746 30652 30654    1
 26747 30655 30656    1
 26748 30655 30657    1
 26749 30658 30659    1
 26750 30658 30660    1
 26751 30661 30662    1
 26752 30661 30663    1
 26753 30664 30665    1
 26754 30664 30666    1
 26755 30667 30668    1
 26756 30667 30669    1
 26757 30670 30671    1
 26758 30670 30672    1
 26759 30673 30674    1
 26760 30673 30675    1
 26761 30676 30677    1
 26762 30676 30678    1
 26763 30679 30680    1
 26764 30679 30681    1
 26765 30682 30683    1
 26766 30682 30684    1
 26767 30685 30686    1
 26768 30685 30687    1
 26769 30688 30689    1
 26770 30688 30690    1
 26771 30691 30692    1
 26772 30691 30693    1
 26773 30694 30695    1
 26774 30694 30696    1
 26775 30697 30698    1
 26776 30697 30699    1
 26777 30700 30701    1
 26778 30700 30702    1
 26779 30703 30704    1
 26780 30703 30705    1
 26781 30706 30707    1
 26782 30706 30708    1
 26783 30709 30710    1
 26784 30709 30711    1
 26785 30712 30713    1
 26786 30712 30714    1
 26787 30715 30716    1
 26788 30715 30717    1
 26789 30718 30719    1
 26790 30718 30720    1
 26791 30721 30722    1
 26792 30721 30723    1
 26793 30724 30725    1
 26794 30724 30726    1
 26795 30727 30728    1
 26796 30727 30729    1
 26797 30730 30731    1
 26798 30730 30732    1
 26799 30733 30734    1
 26800 30733 30735    1
 26801 30736 30737    1
 26802 30736 30738    1
 26803 30739 30740    1
 26804 30739 30741    1
 26805 30742 30743    1
 26806 30742 30744    1
 26807 30745 30746    1
 26808 30745 30747    1
 26809 30748 30749    1
 26810 30748 30750    1
 26811 30751 30752    1
 26812 30751 30753    1
 26813 30754 30755    1
 26814 30754 30756    1
 26815 30757 30758    1
 26816 30757 30759    1
 26817 30760 30761    1
 26818 30760 30762    1
 26819 30763 30764    1
 26820 30763 30765    1
 26821 30766 30767    1
 26822 30766 30768    1
 26823 30769 30770    1
 26824 30769 30771    1
 26825 30772 30773    1
 26826 30772 30774    1
 26827 30775 30776    1
 26828 30775 30777    1
 26829 30778 30779    1
 26830 30778 30780    1
 26831 30781 30782    1
 26832 30781 30783    1
 26833 30784 30785    1
 26834 30784 30786    1
 26835 30787 30788    1
 26836 30787 30789    1
 26837 30790 30791    1
 26838 30790 30792    1
 26839 30793 30794    1
 26840 30793 30795    1
 26841 30796 30797    1
 26842 30796 30798    1
 26843 30799 30800    1
 26844 30799 30801    1
 26845 30802 30803    1
 26846 30802 30804    1
 26847 30805 30806    1
 26848 30805 30807    1
 26849 30808 30809    1
 26850 30808 30810    1
 26851 30811 30812    1
 26852 30811 30813    1
 26853 30814 30815    1
 26854 30814 30816    1
 26855 30817 30818    1
 26856 30817 30819    1
 26857 30820 30821    1
 26858 30820 30822    1
 26859 30823 30824    1
 26860 30823 30825    1
 26861 30826 30827    1
 26862 30826 30828    1
 26863 30829 30830    1
 26864 30829 30831    1
 26865 30832 30833    1
 26866 30832 30834    1
 26867 30835 30836    1
 26868 30835 30837    1
 26869 30838 30839    1
 26870 30838 30840    1
 26871 30841 30842    1
 26872 30841 30843    1
 26873 30844 30845    1
 26874 30844 30846    1
 26875 30847 30848    1
 26876 30847 30849    1
 26877 30850 30851    1
 26878 30850 30852    1
 26879 30853 30854    1
 26880 30853 30855    1
 26881 30856 30857    1
 26882 30856 30858    1
 26883 30859 30860    1
 26884 30859 30861    1
 26885 30862 30863    1
 26886 30862 30864    1
 26887 30865 30866    1
 26888 30865 30867    1
 26889 30868 30869    1
 26890 30868 30870    1
 26891 30871 30872    1
 26892 30871 30873    1
 26893 30874 30875    1
 26894 30874 30876    1
 26895 30877 30878    1
 26896 30877 30879    1
 26897 30880 30881    1
 26898 30880 30882    1
 26899 30883 30884    1
 26900 30883 30885    1
 26901 30886 30887    1
 26902 30886 30888    1
 26903 30889 30890    1
 26904 30889 30891    1
 26905 30892 30893    1
 26906 30892 30894    1
 26907 30895 30896    1
 26908 30895 30897    1
 26909 30898 30899    1
 26910 30898 30900    1
 26911 30901 30902    1
 26912 30901 30903    1
 26913 30904 30905    1
 26914 30904 30906    1
 26915 30907 30908    1
 26916 30907 30909    1
 26917 30910 30911    1
 26918 30910 30912    1
 26919 30913 30914    1
 26920 30913 30915    1
 26921 30916 30917    1
 26922 30916 30918    1
 26923 30919 30920    1
 26924 30919 30921    1
 26925 30922 30923    1
 26926 30922 30924    1
 26927 30925 30926    1
 26928 30925 30927    1
 26929 30928 30929    1
 26930 30928 30930    1
 26931 30931 30932    1
 26932 30931 30933    1
 26933 30934 30935    1
 26934 30934 30936    1
 26935 30937 30938    1
 26936 30937 30939    1
 26937 30940 30941    1
 26938 30940 30942    1
 26939 30943 30944    1
 26940 30943 30945    1
 26941 30946 30947    1
 26942 30946 30948    1
 26943 30949 30950    1
 26944 30949 30951    1
 26945 30952 30953    1
 26946 30952 30954    1
 26947 30955 30956    1
 26948 30955 30957    1
 26949 30958 30959    1
 26950 30958 30960    1
 26951 30961 30962    1
 26952 30961 30963    1
 26953 30964 30965    1
 26954 30964 30966    1
 26955 30967 30968    1
 26956 30967 30969    1
 26957 30970 30971    1
 26958 30970 30972    1
 26959 30973 30974    1
 26960 30973 30975    1
 26961 30976 30977    1
 26962 30976 30978    1
 26963 30979 30980    1
 26964 30979 30981    1
 26965 30982 30983    1
 26966 30982 30984    1
 26967 30985 30986    1
 26968 30985 30987    1
 26969 30988 30989    1
 26970 30988 30990    1
 26971 30991 30992    1
 26972 30991 30993    1
 26973 30994 30995    1
 26974 30994 30996    1
 26975 30997 30998    1
 26976 30997 30999    1
 26977 31000 31001    1
 26978 31000 31002    1
 26979 31003 31004    1
 26980 31003 31005    1
 26981 31006 31007    1
 26982 31006 31008    1
 26983 31009 31010    1
 26984 31009 31011    1
 26985 31012 31013    1
 26986 31012 31014    1
 26987 31015 31016    1
 26988 31015 31017    1
 26989 31018 31019    1
 26990 31018 31020    1
 26991 31021 31022    1
 26992 31021 31023    1
 26993 31024 31025    1
 26994 31024 31026    1
 26995 31027 31028    1
 26996 31027 31029    1
 26997 31030 31031    1
 26998 31030 31032    1
 26999 31033 31034    1
 27000 31033 31035    1
 27001 31036 31037    1
 27002 31036 31038    1
 27003 31039 31040    1
 27004 31039 31041    1
 27005 31042 31043    1
 27006 31042 31044    1
 27007 31045 31046    1
 27008 31045 31047    1
 27009 31048 31049    1
 27010 31048 31050    1
 27011 31051 31052    1
 27012 31051 31053    1
 27013 31054 31055    1
 27014 31054 31056    1
 27015 31057 31058    1
 27016 31057 31059    1
 27017 31060 31061    1
 27018 31060 31062    1
 27019 31063 31064    1
 27020 31063 31065    1
 27021 31066 31067    1
 27022 31066 31068    1
 27023 31069 31070    1
 27024 31069 31071    1
 27025 31072 31073    1
 27026 31072 31074    1
 27027 31075 31076    1
 27028 31075 31077    1
 27029 31078 31079    1
 27030 31078 31080    1
 27031 31081 31082    1
 27032 31081 31083    1
 27033 31084 31085    1
 27034 31084 31086    1
 27035 31087 31088    1
 27036 31087 31089    1
 27037 31090 31091    1
 27038 31090 31092    1
 27039 31093 31094    1
 27040 31093 31095    1
 27041 31096 31097    1
 27042 31096 31098    1
 27043 31099 31100    1
 27044 31099 31101    1
 27045 31102 31103    1
 27046 31102 31104    1
 27047 31105 31106    1
 27048 31105 31107    1
 27049 31108 31109    1
 27050 31108 31110    1
 27051 31111 31112    1
 27052 31111 31113    1
 27053 31114 31115    1
 27054 31114 31116    1
 27055 31117 31118    1
 27056 31117 31119    1
 27057 31120 31121    1
 27058 31120 31122    1
 27059 31123 31124    1
 27060 31123 31125    1
 27061 31126 31127    1
 27062 31126 31128    1
 27063 31129 31130    1
 27064 31129 31131    1
 27065 31132 31133    1
 27066 31132 31134    1
 27067 31135 31136    1
 27068 31135 31137    1
 27069 31138 31139    1
 27070 31138 31140    1
 27071 31141 31142    1
 27072 31141 31143    1
 27073 31144 31145    1
 27074 31144 31146    1
 27075 31147 31148    1
 27076 31147 31149    1
 27077 31150 31151    1
 27078 31150 31152    1
 27079 31153 31154    1
 27080 31153 31155    1
 27081 31156 31157    1
 27082 31156 31158    1
 27083 31159 31160    1
 27084 31159 31161    1
 27085 31162 31163    1
 27086 31162 31164    1
 27087 31165 31166    1
 27088 31165 31167    1
 27089 31168 31169    1
 27090 31168 31170    1
 27091 31171 31172    1
 27092 31171 31173    1
 27093 31174 31175    1
 27094 31174 31176    1
 27095 31177 31178    1
 27096 31177 31179    1
 27097 31180 31181    1
 27098 31180 31182    1
 27099 31183 31184    1
 27100 31183 31185    1
 27101 31186 31187    1
 27102 31186 31188    1
 27103 31189 31190    1
 27104 31189 31191    1
 27105 31192 31193    1
 27106 31192 31194    1
 27107 31195 31196    1
 27108 31195 31197    1
 27109 31198 31199    1
 27110 31198 31200    1
 27111 31201 31202    1
 27112 31201 31203    1
 27113 31204 31205    1
 27114 31204 31206    1
 27115 31207 31208    1
 27116 31207 31209    1
 27117 31210 31211    1
 27118 31210 31212    1
 27119 31213 31214    1
 27120 31213 31215    1
 27121 31216 31217    1
 27122 31216 31218    1
 27123 31219 31220    1
 27124 31219 31221    1
 27125 31222 31223    1
 27126 31222 31224    1
 27127 31225 31226    1
 27128 31225 31227    1
 27129 31228 31229    1
 27130 31228 31230    1
 27131 31231 31232    1
 27132 31231 31233    1
 27133 31234 31235    1
 27134 31234 31236    1
 27135 31237 31238    1
 27136 31237 31239    1
 27137 31240 31241    1
 27138 31240 31242    1
 27139 31243 31244    1
 27140 31243 31245    1
 27141 31246 31247    1
 27142 31246 31248    1
 27143 31249 31250    1
 27144 31249 31251    1
 27145 31252 31253    1
 27146 31252 31254    1
 27147 31255 31256    1
 27148 31255 31257    1
 27149 31258 31259    1
 27150 31258 31260    1
 27151 31261 31262    1
 27152 31261 31263    1
 27153 31264 31265    1
 27154 31264 31266    1
 27155 31267 31268    1
 27156 31267 31269    1
 27157 31270 31271    1
 27158 31270 31272    1
 27159 31273 31274    1
 27160 31273 31275    1
 27161 31276 31277    1
 27162 31276 31278    1
 27163 31279 31280    1
 27164 31279 31281    1
 27165 31282 31283    1
 27166 31282 31284    1
 27167 31285 31286    1
 27168 31285 31287    1
 27169 31288 31289    1
 27170 31288 31290    1
 27171 31291 31292    1
 27172 31291 31293    1
 27173 31294 31295    1
 27174 31294 31296    1
 27175 31297 31298    1
 27176 31297 31299    1
 27177 31300 31301    1
 27178 31300 31302    1
 27179 31303 31304    1
 27180 31303 31305    1
 27181 31306 31307    1
 27182 31306 31308    1
 27183 31309 31310    1
 27184 31309 31311    1
 27185 31312 31313    1
 27186 31312 31314    1
 27187 31315 31316    1
 27188 31315 31317    1
 27189 31318 31319    1
 27190 31318 31320    1
 27191 31321 31322    1
 27192 31321 31323    1
 27193 31324 31325    1
 27194 31324 31326    1
 27195 31327 31328    1
 27196 31327 31329    1
 27197 31330 31331    1
 27198 31330 31332    1
 27199 31333 31334    1
 27200 31333 31335    1
 27201 31336 31337    1
 27202 31336 31338    1
 27203 31339 31340    1
 27204 31339 31341    1
 27205 31342 31343    1
 27206 31342 31344    1
 27207 31345 31346    1
 27208 31345 31347    1
 27209 31348 31349    1
 27210 31348 31350    1
 27211 31351 31352    1
 27212 31351 31353    1
 27213 31354 31355    1
 27214 31354 31356    1
 27215 31357 31358    1
 27216 31357 31359    1
 27217 31360 31361    1
 27218 31360 31362    1
 27219 31363 31364    1
 27220 31363 31365    1
 27221 31366 31367    1
 27222 31366 31368    1
 27223 31369 31370    1
 27224 31369 31371    1
 27225 31372 31373    1
 27226 31372 31374    1
 27227 31375 31376    1
 27228 31375 31377    1
 27229 31378 31379    1
 27230 31378 31380    1
 27231 31381 31382    1
 27232 31381 31383    1
 27233 31384 31385    1
 27234 31384 31386    1
 27235 31387 31388    1
 27236 31387 31389    1
 27237 31390 31391    1
 27238 31390 31392    1
 27239 31393 31394    1
 27240 31393 31395    1
 27241 31396 31397    1
 27242 31396 31398    1
 27243 31399 31400    1
 27244 31399 31401    1
 27245 31402 31403    1
 27246 31402 31404    1
 27247 31405 31406    1
 27248 31405 31407    1
 27249 31408 31409    1
 27250 31408 31410    1
 27251 31411 31412    1
 27252 31411 31413    1
 27253 31414 31415    1
 27254 31414 31416    1
 27255 31417 31418    1
 27256 31417 31419    1
 27257 31420 31421    1
 27258 31420 31422    1
 27259 31423 31424    1
 27260 31423 31425    1
 27261 31426 31427    1
 27262 31426 31428    1
 27263 31429 31430    1
 27264 31429 31431    1
 27265 31432 31433    1
 27266 31432 31434    1
 27267 31435 31436    1
 27268 31435 31437    1
 27269 31438 31439    1
 27270 31438 31440    1
 27271 31441 31442    1
 27272 31441 31443    1
 27273 31444 31445    1
 27274 31444 31446    1
 27275 31447 31448    1
 27276 31447 31449    1
 27277 31450 31451    1
 27278 31450 31452    1
 27279 31453 31454    1
 27280 31453 31455    1
 27281 31456 31457    1
 27282 31456 31458    1
 27283 31459 31460    1
 27284 31459 31461    1
 27285 31462 31463    1
 27286 31462 31464    1
 27287 31465 31466    1
 27288 31465 31467    1
 27289 31468 31469    1
 27290 31468 31470    1
 27291 31471 31472    1
 27292 31471 31473    1
 27293 31474 31475    1
 27294 31474 31476    1
 27295 31477 31478    1
 27296 31477 31479    1
 27297 31480 31481    1
 27298 31480 31482    1
 27299 31483 31484    1
 27300 31483 31485    1
 27301 31486 31487    1
 27302 31486 31488    1
 27303 31489 31490    1
 27304 31489 31491    1
 27305 31492 31493    1
 27306 31492 31494    1
 27307 31495 31496    1
 27308 31495 31497    1
 27309 31498 31499    1
 27310 31498 31500    1
 27311 31501 31502    1
 27312 31501 31503    1
 27313 31504 31505    1
 27314 31504 31506    1
 27315 31507 31508    1
 27316 31507 31509    1
 27317 31510 31511    1
 27318 31510 31512    1
 27319 31513 31514    1
 27320 31513 31515    1
 27321 31516 31517    1
 27322 31516 31518    1
 27323 31519 31520    1
 27324 31519 31521    1
 27325 31522 31523    1
 27326 31522 31524    1
 27327 31525 31526    1
 27328 31525 31527    1
 27329 31528 31529    1
 27330 31528 31530    1
 27331 31531 31532    1
 27332 31531 31533    1
 27333 31534 31535    1
 27334 31534 31536    1
 27335 31537 31538    1
 27336 31537 31539    1
 27337 31540 31541    1
 27338 31540 31542    1
 27339 31543 31544    1
 27340 31543 31545    1
 27341 31546 31547    1
 27342 31546 31548    1
 27343 31549 31550    1
 27344 31549 31551    1
 27345 31552 31553    1
 27346 31552 31554    1
 27347 31555 31556    1
 27348 31555 31557    1
 27349 31558 31559    1
 27350 31558 31560    1
 27351 31561 31562    1
 27352 31561 31563    1
 27353 31564 31565    1
 27354 31564 31566    1
 27355 31567 31568    1
 27356 31567 31569    1
 27357 31570 31571    1
 27358 31570 31572    1
 27359 31573 31574    1
 27360 31573 31575    1
 27361 31576 31577    1
 27362 31576 31578    1
 27363 31579 31580    1
 27364 31579 31581    1
 27365 31582 31583    1
 27366 31582 31584    1
 27367 31585 31586    1
 27368 31585 31587    1
 27369 31588 31589    1
 27370 31588 31590    1
 27371 31591 31592    1
 27372 31591 31593    1
 27373 31594 31595    1
 27374 31594 31596    1
 27375 31597 31598    1
 27376 31597 31599    1
 27377 31600 31601    1
 27378 31600 31602    1
 27379 31603 31604    1
 27380 31603 31605    1
 27381 31606 31607    1
 27382 31606 31608    1
 27383 31609 31610    1
 27384 31609 31611    1
 27385 31612 31613    1
 27386 31612 31614    1
 27387 31615 31616    1
 27388 31615 31617    1
 27389 31618 31619    1
 27390 31618 31620    1
 27391 31621 31622    1
 27392 31621 31623    1
 27393 31624 31625    1
 27394 31624 31626    1
 27395 31627 31628    1
 27396 31627 31629    1
 27397 31630 31631    1
 27398 31630 31632    1
 27399 31633 31634    1
 27400 31633 31635    1
 27401 31636 31637    1
 27402 31636 31638    1
 27403 31639 31640    1
 27404 31639 31641    1
 27405 31642 31643    1
 27406 31642 31644    1
 27407 31645 31646    1
 27408 31645 31647    1
 27409 31648 31649    1
 27410 31648 31650    1
 27411 31651 31652    1
 27412 31651 31653    1
 27413 31654 31655    1
 27414 31654 31656    1
 27415 31657 31658    1
 27416 31657 31659    1
 27417 31660 31661    1
 27418 31660 31662    1
 27419 31663 31664    1
 27420 31663 31665    1
 27421 31666 31667    1
 27422 31666 31668    1
 27423 31669 31670    1
 27424 31669 31671    1
 27425 31672 31673    1
 27426 31672 31674    1
 27427 31675 31676    1
 27428 31675 31677    1
 27429 31678 31679    1
 27430 31678 31680    1
 27431 31681 31682    1
 27432 31681 31683    1
 27433 31684 31685    1
 27434 31684 31686    1
 27435 31687 31688    1
 27436 31687 31689    1
 27437 31690 31691    1
 27438 31690 31692    1
 27439 31693 31694    1
 27440 31693 31695    1
 27441 31696 31697    1
 27442 31696 31698    1
 27443 31699 31700    1
 27444 31699 31701    1
 27445 31702 31703    1
 27446 31702 31704    1
 27447 31705 31706    1
 27448 31705 31707    1
 27449 31708 31709    1
 27450 31708 31710    1
 27451 31711 31712    1
 27452 31711 31713    1
 27453 31714 31715    1
 27454 31714 31716    1
 27455 31717 31718    1
 27456 31717 31719    1
 27457 31720 31721    1
 27458 31720 31722    1
 27459 31723 31724    1
 27460 31723 31725    1
 27461 31726 31727    1
 27462 31726 31728    1
 27463 31729 31730    1
 27464 31729 31731    1
 27465 31732 31733    1
 27466 31732 31734    1
 27467 31735 31736    1
 27468 31735 31737    1
 27469 31738 31739    1
 27470 31738 31740    1
 27471 31741 31742    1
 27472 31741 31743    1
 27473 31744 31745    1
 27474 31744 31746    1
 27475 31747 31748    1
 27476 31747 31749    1
 27477 31750 31751    1
 27478 31750 31752    1
 27479 31753 31754    1
 27480 31753 31755    1
 27481 31756 31757    1
 27482 31756 31758    1
 27483 31759 31760    1
 27484 31759 31761    1
 27485 31762 31763    1
 27486 31762 31764    1
 27487 31765 31766    1
 27488 31765 31767    1
 27489 31768 31769    1
 27490 31768 31770    1
 27491 31771 31772    1
 27492 31771 31773    1
 27493 31774 31775    1
 27494 31774 31776    1
 27495 31777 31778    1
 27496 31777 31779    1
 27497 31780 31781    1
 27498 31780 31782    1
 27499 31783 31784    1
 27500 31783 31785    1
 27501 31786 31787    1
 27502 31786 31788    1
 27503 31789 31790    1
 27504 31789 31791    1
 27505 31792 31793    1
 27506 31792 31794    1
 27507 31795 31796    1
 27508 31795 31797    1
 27509 31798 31799    1
 27510 31798 31800    1
 27511 31801 31802    1
 27512 31801 31803    1
 27513 31804 31805    1
 27514 31804 31806    1
 27515 31807 31808    1
 27516 31807 31809    1
 27517 31810 31811    1
 27518 31810 31812    1
 27519 31813 31814    1
 27520 31813 31815    1
 27521 31816 31817    1
 27522 31816 31818    1
 27523 31819 31820    1
 27524 31819 31821    1
 27525 31822 31823    1
 27526 31822 31824    1
 27527 31825 31826    1
 27528 31825 31827    1
 27529 31828 31829    1
 27530 31828 31830    1
 27531 31831 31832    1
 27532 31831 31833    1
 27533 31834 31835    1
 27534 31834 31836    1
 27535 31837 31838    1
 27536 31837 31839    1
 27537 31840 31841    1
 27538 31840 31842    1
 27539 31843 31844    1
 27540 31843 31845    1
 27541 31846 31847    1
 27542 31846 31848    1
 27543 31849 31850    1
 27544 31849 31851    1
 27545 31852 31853    1
 27546 31852 31854    1
 27547 31855 31856    1
 27548 31855 31857    1
 27549 31858 31859    1
 27550 31858 31860    1
 27551 31861 31862    1
 27552 31861 31863    1
 27553 31864 31865    1
 27554 31864 31866    1
 27555 31867 31868    1
 27556 31867 31869    1
 27557 31870 31871    1
 27558 31870 31872    1
 27559 31873 31874    1
 27560 31873 31875    1
 27561 31876 31877    1
 27562 31876 31878    1
 27563 31879 31880    1
 27564 31879 31881    1
 27565 31882 31883    1
 27566 31882 31884    1
 27567 31885 31886    1
 27568 31885 31887    1
 27569 31888 31889    1
 27570 31888 31890    1
 27571 31891 31892    1
 27572 31891 31893    1
 27573 31894 31895    1
 27574 31894 31896    1
 27575 31897 31898    1
 27576 31897 31899    1
 27577 31900 31901    1
 27578 31900 31902    1
 27579 31903 31904    1
 27580 31903 31905    1
 27581 31906 31907    1
 27582 31906 31908    1
 27583 31909 31910    1
 27584 31909 31911    1
 27585 31912 31913    1
 27586 31912 31914    1
 27587 31915 31916    1
 27588 31915 31917    1
 27589 31918 31919    1
 27590 31918 31920    1
 27591 31921 31922    1
 27592 31921 31923    1
 27593 31924 31925    1
 27594 31924 31926    1
 27595 31927 31928    1
 27596 31927 31929    1
 27597 31930 31931    1
 27598 31930 31932    1
 27599 31933 31934    1
 27600 31933 31935    1
 27601 31936 31937    1
 27602 31936 31938    1
 27603 31939 31940    1
 27604 31939 31941    1
 27605 31942 31943    1
 27606 31942 31944    1
 27607 31945 31946    1
 27608 31945 31947    1
 27609 31948 31949    1
 27610 31948 31950    1
 27611 31951 31952    1
 27612 31951 31953    1
 27613 31954 31955    1
 27614 31954 31956    1
 27615 31957 31958    1
 27616 31957 31959    1
 27617 31960 31961    1
 27618 31960 31962    1
 27619 31963 31964    1
 27620 31963 31965    1
 27621 31966 31967    1
 27622 31966 31968    1
 27623 31969 31970    1
 27624 31969 31971    1
 27625 31972 31973    1
 27626 31972 31974    1
 27627 31975 31976    1
 27628 31975 31977    1
 27629 31978 31979    1
 27630 31978 31980    1
 27631 31981 31982    1
 27632 31981 31983    1
 27633 31984 31985    1
 27634 31984 31986    1
 27635 31987 31988    1
 27636 31987 31989    1
 27637 31990 31991    1
 27638 31990 31992    1
 27639 31993 31994    1
 27640 31993 31995    1
 27641 31996 31997    1
 27642 31996 31998    1
 27643 31999 32000    1
 27644 31999 32001    1
 27645 32002 32003    1
 27646 32002 32004    1
 27647 32005 32006    1
 27648 32005 32007    1
 27649 32008 32009    1
 27650 32008 32010    1
 27651 32011 32012    1
 27652 32011 32013    1
 27653 32014 32015    1
 27654 32014 32016    1
 27655 32017 32018    1
 27656 32017 32019    1
 27657 32020 32021    1
 27658 32020 32022    1
 27659 32023 32024    1
 27660 32023 32025    1
 27661 32026 32027    1
 27662 32026 32028    1
 27663 32029 32030    1
 27664 32029 32031    1
 27665 32032 32033    1
 27666 32032 32034    1
 27667 32035 32036    1
 27668 32035 32037    1
 27669 32038 32039    1
 27670 32038 32040    1
 27671 32041 32042    1
 27672 32041 32043    1
 27673 32044 32045    1
 27674 32044 32046    1
 27675 32047 32048    1
 27676 32047 32049    1
 27677 32050 32051    1
 27678 32050 32052    1
 27679 32053 32054    1
 27680 32053 32055    1
 27681 32056 32057    1
 27682 32056 32058    1
 27683 32059 32060    1
 27684 32059 32061    1
 27685 32062 32063    1
 27686 32062 32064    1
 27687 32065 32066    1
 27688 32065 32067    1
 27689 32068 32069    1
 27690 32068 32070    1
 27691 32071 32072    1
 27692 32071 32073    1
 27693 32074 32075    1
 27694 32074 32076    1
 27695 32077 32078    1
 27696 32077 32079    1
 27697 32080 32081    1
 27698 32080 32082    1
 27699 32083 32084    1
 27700 32083 32085    1
 27701 32086 32087    1
 27702 32086 32088    1
 27703 32089 32090    1
 27704 32089 32091    1
 27705 32092 32093    1
 27706 32092 32094    1
 27707 32095 32096    1
 27708 32095 32097    1
 27709 32098 32099    1
 27710 32098 32100    1
 27711 32101 32102    1
 27712 32101 32103    1
 27713 32104 32105    1
 27714 32104 32106    1
 27715 32107 32108    1
 27716 32107 32109    1
 27717 32110 32111    1
 27718 32110 32112    1
 27719 32113 32114    1
 27720 32113 32115    1
 27721 32116 32117    1
 27722 32116 32118    1
 27723 32119 32120    1
 27724 32119 32121    1
 27725 32122 32123    1
 27726 32122 32124    1
 27727 32125 32126    1
 27728 32125 32127    1
 27729 32128 32129    1
 27730 32128 32130    1
 27731 32131 32132    1
 27732 32131 32133    1
 27733 32134 32135    1
 27734 32134 32136    1
 27735 32137 32138    1
 27736 32137 32139    1
 27737 32140 32141    1
 27738 32140 32142    1
 27739 32143 32144    1
 27740 32143 32145    1
 27741 32146 32147    1
 27742 32146 32148    1
 27743 32149 32150    1
 27744 32149 32151    1
 27745 32152 32153    1
 27746 32152 32154    1
 27747 32155 32156    1
 27748 32155 32157    1
 27749 32158 32159    1
 27750 32158 32160    1
 27751 32161 32162    1
 27752 32161 32163    1
 27753 32164 32165    1
 27754 32164 32166    1
 27755 32167 32168    1
 27756 32167 32169    1
 27757 32170 32171    1
 27758 32170 32172    1
 27759 32173 32174    1
 27760 32173 32175    1
 27761 32176 32177    1
 27762 32176 32178    1
 27763 32179 32180    1
 27764 32179 32181    1
 27765 32182 32183    1
 27766 32182 32184    1
 27767 32185 32186    1
 27768 32185 32187    1
 27769 32188 32189    1
 27770 32188 32190    1
 27771 32191 32192    1
 27772 32191 32193    1
 27773 32194 32195    1
 27774 32194 32196    1
 27775 32197 32198    1
 27776 32197 32199    1
 27777 32200 32201    1
 27778 32200 32202    1
 27779 32203 32204    1
 27780 32203 32205    1
 27781 32206 32207    1
 27782 32206 32208    1
 27783 32209 32210    1
 27784 32209 32211    1
 27785 32212 32213    1
 27786 32212 32214    1
 27787 32215 32216    1
 27788 32215 32217    1
 27789 32218 32219    1
 27790 32218 32220    1
 27791 32221 32222    1
 27792 32221 32223    1
 27793 32224 32225    1
 27794 32224 32226    1
 27795 32227 32228    1
 27796 32227 32229    1
 27797 32230 32231    1
 27798 32230 32232    1
 27799 32233 32234    1
 27800 32233 32235    1
 27801 32236 32237    1
 27802 32236 32238    1
 27803 32239 32240    1
 27804 32239 32241    1
 27805 32242 32243    1
 27806 32242 32244    1
 27807 32245 32246    1
 27808 32245 32247    1
 27809 32248 32249    1
 27810 32248 32250    1
 27811 32251 32252    1
 27812 32251 32253    1
 27813 32254 32255    1
 27814 32254 32256    1
 27815 32257 32258    1
 27816 32257 32259    1
 27817 32260 32261    1
 27818 32260 32262    1
 27819 32263 32264    1
 27820 32263 32265    1
 27821 32266 32267    1
 27822 32266 32268    1
 27823 32269 32270    1
 27824 32269 32271    1
 27825 32272 32273    1
 27826 32272 32274    1
 27827 32275 32276    1
 27828 32275 32277    1
 27829 32278 32279    1
 27830 32278 32280    1
 27831 32281 32282    1
 27832 32281 32283    1
 27833 32284 32285    1
 27834 32284 32286    1
 27835 32287 32288    1
 27836 32287 32289    1
 27837 32290 32291    1
 27838 32290 32292    1
 27839 32293 32294    1
 27840 32293 32295    1
 27841 32296 32297    1
 27842 32296 32298    1
 27843 32299 32300    1
 27844 32299 32301    1
 27845 32302 32303    1
 27846 32302 32304    1
 27847 32305 32306    1
 27848 32305 32307    1
 27849 32308 32309    1
 27850 32308 32310    1
 27851 32311 32312    1
 27852 32311 32313    1
 27853 32314 32315    1
 27854 32314 32316    1
 27855 32317 32318    1
 27856 32317 32319    1
 27857 32320 32321    1
 27858 32320 32322    1
 27859 32323 32324    1
 27860 32323 32325    1
 27861 32326 32327    1
 27862 32326 32328    1
 27863 32329 32330    1
 27864 32329 32331    1
 27865 32332 32333    1
 27866 32332 32334    1
 27867 32335 32336    1
 27868 32335 32337    1
 27869 32338 32339    1
 27870 32338 32340    1
 27871 32341 32342    1
 27872 32341 32343    1
 27873 32344 32345    1
 27874 32344 32346    1
 27875 32347 32348    1
 27876 32347 32349    1
 27877 32350 32351    1
 27878 32350 32352    1
 27879 32353 32354    1
 27880 32353 32355    1
 27881 32356 32357    1
 27882 32356 32358    1
 27883 32359 32360    1
 27884 32359 32361    1
 27885 32362 32363    1
 27886 32362 32364    1
 27887 32365 32366    1
 27888 32365 32367    1
 27889 32368 32369    1
 27890 32368 32370    1
 27891 32371 32372    1
 27892 32371 32373    1
 27893 32374 32375    1
 27894 32374 32376    1
 27895 32377 32378    1
 27896 32377 32379    1
 27897 32380 32381    1
 27898 32380 32382    1
 27899 32383 32384    1
 27900 32383 32385    1
 27901 32386 32387    1
 27902 32386 32388    1
 27903 32389 32390    1
 27904 32389 32391    1
 27905 32392 32393    1
 27906 32392 32394    1
 27907 32395 32396    1
 27908 32395 32397    1
 27909 32398 32399    1
 27910 32398 32400    1
 27911 32401 32402    1
 27912 32401 32403    1
 27913 32404 32405    1
 27914 32404 32406    1
 27915 32407 32408    1
 27916 32407 32409    1
 27917 32410 32411    1
 27918 32410 32412    1
 27919 32413 32414    1
 27920 32413 32415    1
 27921 32416 32417    1
 27922 32416 32418    1
 27923 32419 32420    1
 27924 32419 32421    1
 27925 32422 32423    1
 27926 32422 32424    1
 27927 32425 32426    1
 27928 32425 32427    1
 27929 32428 32429    1
 27930 32428 32430    1
 27931 32431 32432    1
 27932 32431 32433    1
 27933 32434 32435    1
 27934 32434 32436    1
 27935 32437 32438    1
 27936 32437 32439    1
 27937 32440 32441    1
 27938 32440 32442    1
 27939 32443 32444    1
 27940 32443 32445    1
 27941 32446 32447    1
 27942 32446 32448    1
 27943 32449 32450    1
 27944 32449 32451    1
 27945 32452 32453    1
 27946 32452 32454    1
 27947 32455 32456    1
 27948 32455 32457    1
 27949 32458 32459    1
 27950 32458 32460    1
 27951 32461 32462    1
 27952 32461 32463    1
 27953 32464 32465    1
 27954 32464 32466    1
 27955 32467 32468    1
 27956 32467 32469    1
 27957 32470 32471    1
 27958 32470 32472    1
 27959 32473 32474    1
 27960 32473 32475    1
 27961 32476 32477    1
 27962 32476 32478    1
 27963 32479 32480    1
 27964 32479 32481    1
 27965 32482 32483    1
 27966 32482 32484    1
 27967 32485 32486    1
 27968 32485 32487    1
 27969 32488 32489    1
 27970 32488 32490    1
 27971 32491 32492    1
 27972 32491 32493    1
 27973 32494 32495    1
 27974 32494 32496    1
 27975 32497 32498    1
 27976 32497 32499    1
 27977 32500 32501    1
 27978 32500 32502    1
 27979 32503 32504    1
 27980 32503 32505    1
 27981 32506 32507    1
 27982 32506 32508    1
 27983 32509 32510    1
 27984 32509 32511    1
 27985 32512 32513    1
 27986 32512 32514    1
 27987 32515 32516    1
 27988 32515 32517    1
 27989 32518 32519    1
 27990 32518 32520    1
 27991 32521 32522    1
 27992 32521 32523    1
 27993 32524 32525    1
 27994 32524 32526    1
 27995 32527 32528    1
 27996 32527 32529    1
 27997 32530 32531    1
 27998 32530 32532    1
 27999 32533 32534    1
 28000 32533 32535    1
 28001 32536 32537    1
 28002 32536 32538    1
 28003 32539 32540    1
 28004 32539 32541    1
 28005 32542 32543    1
 28006 32542 32544    1
 28007 32545 32546    1
 28008 32545 32547    1
 28009 32548 32549    1
 28010 32548 32550    1
 28011 32551 32552    1
 28012 32551 32553    1
 28013 32554 32555    1
 28014 32554 32556    1
 28015 32557 32558    1
 28016 32557 32559    1
 28017 32560 32561    1
 28018 32560 32562    1
 28019 32563 32564    1
 28020 32563 32565    1
 28021 32566 32567    1
 28022 32566 32568    1
 28023 32569 32570    1
 28024 32569 32571    1
 28025 32572 32573    1
 28026 32572 32574    1
 28027 32575 32576    1
 28028 32575 32577    1
 28029 32578 32579    1
 28030 32578 32580    1
 28031 32581 32582    1
 28032 32581 32583    1
 28033 32584 32585    1
 28034 32584 32586    1
 28035 32587 32588    1
 28036 32587 32589    1
 28037 32590 32591    1
 28038 32590 32592    1
 28039 32593 32594    1
 28040 32593 32595    1
 28041 32596 32597    1
 28042 32596 32598    1
 28043 32599 32600    1
 28044 32599 32601    1
 28045 32602 32603    1
 28046 32602 32604    1
 28047 32605 32606    1
 28048 32605 32607    1
 28049 32608 32609    1
 28050 32608 32610    1
 28051 32611 32612    1
 28052 32611 32613    1
 28053 32614 32615    1
 28054 32614 32616    1
 28055 32617 32618    1
 28056 32617 32619    1
 28057 32620 32621    1
 28058 32620 32622    1
 28059 32623 32624    1
 28060 32623 32625    1
 28061 32626 32627    1
 28062 32626 32628    1
 28063 32629 32630    1
 28064 32629 32631    1
 28065 32632 32633    1
 28066 32632 32634    1
 28067 32635 32636    1
 28068 32635 32637    1
 28069 32638 32639    1
 28070 32638 32640    1
 28071 32641 32642    1
 28072 32641 32643    1
 28073 32644 32645    1
 28074 32644 32646    1
 28075 32647 32648    1
 28076 32647 32649    1
 28077 32650 32651    1
 28078 32650 32652    1
 28079 32653 32654    1
 28080 32653 32655    1
 28081 32656 32657    1
 28082 32656 32658    1
 28083 32659 32660    1
 28084 32659 32661    1
 28085 32662 32663    1
 28086 32662 32664    1
 28087 32665 32666    1
 28088 32665 32667    1
 28089 32668 32669    1
 28090 32668 32670    1
 28091 32671 32672    1
 28092 32671 32673    1
 28093 32674 32675    1
 28094 32674 32676    1
 28095 32677 32678    1
 28096 32677 32679    1
 28097 32680 32681    1
 28098 32680 32682    1
 28099 32683 32684    1
 28100 32683 32685    1
 28101 32686 32687    1
 28102 32686 32688    1
 28103 32689 32690    1
 28104 32689 32691    1
 28105 32692 32693    1
 28106 32692 32694    1
 28107 32695 32696    1
 28108 32695 32697    1
 28109 32698 32699    1
 28110 32698 32700    1
 28111 32701 32702    1
 28112 32701 32703    1
 28113 32704 32705    1
 28114 32704 32706    1
 28115 32707 32708    1
 28116 32707 32709    1
 28117 32710 32711    1
 28118 32710 32712    1
 28119 32713 32714    1
 28120 32713 32715    1
 28121 32716 32717    1
 28122 32716 32718    1
 28123 32719 32720    1
 28124 32719 32721    1
 28125 32722 32723    1
 28126 32722 32724    1
 28127 32725 32726    1
 28128 32725 32727    1
 28129 32728 32729    1
 28130 32728 32730    1
 28131 32731 32732    1
 28132 32731 32733    1
 28133 32734 32735    1
 28134 32734 32736    1
 28135 32737 32738    1
 28136 32737 32739    1
 28137 32740 32741    1
 28138 32740 32742    1
 28139 32743 32744    1
 28140 32743 32745    1
 28141 32746 32747    1
 28142 32746 32748    1
 28143 32749 32750    1
 28144 32749 32751    1
 28145 32752 32753    1
 28146 32752 32754    1
 28147 32755 32756    1
 28148 32755 32757    1
 28149 32758 32759    1
 28150 32758 32760    1
 28151 32761 32762    1
 28152 32761 32763    1
 28153 32764 32765    1
 28154 32764 32766    1
 28155 32767 32768    1
 28156 32767 32769    1
 28157 32770 32771    1
 28158 32770 32772    1
 28159 32773 32774    1
 28160 32773 32775    1
 28161 32776 32777    1
 28162 32776 32778    1
 28163 32779 32780    1
 28164 32779 32781    1
 28165 32782 32783    1
 28166 32782 32784    1
 28167 32785 32786    1
 28168 32785 32787    1
 28169 32788 32789    1
 28170 32788 32790    1
 28171 32791 32792    1
 28172 32791 32793    1
 28173 32794 32795    1
 28174 32794 32796    1
 28175 32797 32798    1
 28176 32797 32799    1
 28177 32800 32801    1
 28178 32800 32802    1
 28179 32803 32804    1
 28180 32803 32805    1
 28181 32806 32807    1
 28182 32806 32808    1
 28183 32809 32810    1
 28184 32809 32811    1
 28185 32812 32813    1
 28186 32812 32814    1
 28187 32815 32816    1
 28188 32815 32817    1
 28189 32818 32819    1
 28190 32818 32820    1
 28191 32821 32822    1
 28192 32821 32823    1
 28193 32824 32825    1
 28194 32824 32826    1
 28195 32827 32828    1
 28196 32827 32829    1
 28197 32830 32831    1
 28198 32830 32832    1
 28199 32833 32834    1
 28200 32833 32835    1
 28201 32836 32837    1
 28202 32836 32838    1
 28203 32839 32840    1
 28204 32839 32841    1
 28205 32842 32843    1
 28206 32842 32844    1
 28207 32845 32846    1
 28208 32845 32847    1
 28209 32848 32849    1
 28210 32848 32850    1
 28211 32851 32852    1
 28212 32851 32853    1
 28213 32854 32855    1
 28214 32854 32856    1
 28215 32857 32858    1
 28216 32857 32859    1
 28217 32860 32861    1
 28218 32860 32862    1
 28219 32863 32864    1
 28220 32863 32865    1
 28221 32866 32867    1
 28222 32866 32868    1
 28223 32869 32870    1
 28224 32869 32871    1
 28225 32872 32873    1
 28226 32872 32874    1
 28227 32875 32876    1
 28228 32875 32877    1
 28229 32878 32879    1
 28230 32878 32880    1
 28231 32881 32882    1
 28232 32881 32883    1
 28233 32884 32885    1
 28234 32884 32886    1
 28235 32887 32888    1
 28236 32887 32889    1
 28237 32890 32891    1
 28238 32890 32892    1
 28239 32893 32894    1
 28240 32893 32895    1
 28241 32896 32897    1
 28242 32896 32898    1
 28243 32899 32900    1
 28244 32899 32901    1
 28245 32902 32903    1
 28246 32902 32904    1
 28247 32905 32906    1
 28248 32905 32907    1
 28249 32908 32909    1
 28250 32908 32910    1
 28251 32911 32912    1
 28252 32911 32913    1
 28253 32914 32915    1
 28254 32914 32916    1
 28255 32917 32918    1
 28256 32917 32919    1
 28257 32920 32921    1
 28258 32920 32922    1
 28259 32923 32924    1
 28260 32923 32925    1
 28261 32926 32927    1
 28262 32926 32928    1
 28263 32929 32930    1
 28264 32929 32931    1
 28265 32932 32933    1
 28266 32932 32934    1
 28267 32935 32936    1
 28268 32935 32937    1
 28269 32938 32939    1
 28270 32938 32940    1
 28271 32941 32942    1
 28272 32941 32943    1
 28273 32944 32945    1
 28274 32944 32946    1
 28275 32947 32948    1
 28276 32947 32949    1
 28277 32950 32951    1
 28278 32950 32952    1
 28279 32953 32954    1
 28280 32953 32955    1
 28281 32956 32957    1
 28282 32956 32958    1
 28283 32959 32960    1
 28284 32959 32961    1
 28285 32962 32963    1
 28286 32962 32964    1
 28287 32965 32966    1
 28288 32965 32967    1
 28289 32968 32969    1
 28290 32968 32970    1
 28291 32971 32972    1
 28292 32971 32973    1
 28293 32974 32975    1
 28294 32974 32976    1
 28295 32977 32978    1
 28296 32977 32979    1
 28297 32980 32981    1
 28298 32980 32982    1
 28299 32983 32984    1
 28300 32983 32985    1
 28301 32986 32987    1
 28302 32986 32988    1
 28303 32989 32990    1
 28304 32989 32991    1
 28305 32992 32993    1
 28306 32992 32994    1
 28307 32995 32996    1
 28308 32995 32997    1
 28309 32998 32999    1
 28310 32998 33000    1
 28311 33001 33002    1
 28312 33001 33003    1
 28313 33004 33005    1
 28314 33004 33006    1
 28315 33007 33008    1
 28316 33007 33009    1
 28317 33010 33011    1
 28318 33010 33012    1
 28319 33013 33014    1
 28320 33013 33015    1
 28321 33016 33017    1
 28322 33016 33018    1
 28323 33019 33020    1
 28324 33019 33021    1
 28325 33022 33023    1
 28326 33022 33024    1
 28327 33025 33026    1
 28328 33025 33027    1
 28329 33028 33029    1
 28330 33028 33030    1
 28331 33031 33032    1
 28332 33031 33033    1
 28333 33034 33035    1
 28334 33034 33036    1
 28335 33037 33038    1
 28336 33037 33039    1
 28337 33040 33041    1
 28338 33040 33042    1
 28339 33043 33044    1
 28340 33043 33045    1
 28341 33046 33047    1
 28342 33046 33048    1
 28343 33049 33050    1
 28344 33049 33051    1
 28345 33052 33053    1
 28346 33052 33054    1
 28347 33055 33056    1
 28348 33055 33057    1
 28349 33058 33059    1
 28350 33058 33060    1
 28351 33061 33062    1
 28352 33061 33063    1
 28353 33064 33065    1
 28354 33064 33066    1
 28355 33067 33068    1
 28356 33067 33069    1
 28357 33070 33071    1
 28358 33070 33072    1
 28359 33073 33074    1
 28360 33073 33075    1
 28361 33076 33077    1
 28362 33076 33078    1
 28363 33079 33080    1
 28364 33079 33081    1
 28365 33082 33083    1
 28366 33082 33084    1
 28367 33085 33086    1
 28368 33085 33087    1
 28369 33088 33089    1
 28370 33088 33090    1
 28371 33091 33092    1
 28372 33091 33093    1
 28373 33094 33095    1
 28374 33094 33096    1
 28375 33097 33098    1
 28376 33097 33099    1
 28377 33100 33101    1
 28378 33100 33102    1
 28379 33103 33104    1
 28380 33103 33105    1
 28381 33106 33107    1
 28382 33106 33108    1
 28383 33109 33110    1
 28384 33109 33111    1
 28385 33112 33113    1
 28386 33112 33114    1
 28387 33115 33116    1
 28388 33115 33117    1
 28389 33118 33119    1
 28390 33118 33120    1
 28391 33121 33122    1
 28392 33121 33123    1
 28393 33124 33125    1
 28394 33124 33126    1
 28395 33127 33128    1
 28396 33127 33129    1
 28397 33130 33131    1
 28398 33130 33132    1
 28399 33133 33134    1
 28400 33133 33135    1
 28401 33136 33137    1
 28402 33136 33138    1
 28403 33139 33140    1
 28404 33139 33141    1
 28405 33142 33143    1
 28406 33142 33144    1
 28407 33145 33146    1
 28408 33145 33147    1
 28409 33148 33149    1
 28410 33148 33150    1
 28411 33151 33152    1
 28412 33151 33153    1
 28413 33154 33155    1
 28414 33154 33156    1
 28415 33157 33158    1
 28416 33157 33159    1
 28417 33160 33161    1
 28418 33160 33162    1
 28419 33163 33164    1
 28420 33163 33165    1
 28421 33166 33167    1
 28422 33166 33168    1
 28423 33169 33170    1
 28424 33169 33171    1
 28425 33172 33173    1
 28426 33172 33174    1
 28427 33175 33176    1
 28428 33175 33177    1
 28429 33178 33179    1
 28430 33178 33180    1
 28431 33181 33182    1
 28432 33181 33183    1
 28433 33184 33185    1
 28434 33184 33186    1
 28435 33187 33188    1
 28436 33187 33189    1
 28437 33190 33191    1
 28438 33190 33192    1
 28439 33193 33194    1
 28440 33193 33195    1
 28441 33196 33197    1
 28442 33196 33198    1
 28443 33199 33200    1
 28444 33199 33201    1
 28445 33202 33203    1
 28446 33202 33204    1
 28447 33205 33206    1
 28448 33205 33207    1
 28449 33208 33209    1
 28450 33208 33210    1
 28451 33211 33212    1
 28452 33211 33213    1
 28453 33214 33215    1
 28454 33214 33216    1
 28455 33217 33218    1
 28456 33217 33219    1
 28457 33220 33221    1
 28458 33220 33222    1
 28459 33223 33224    1
 28460 33223 33225    1
 28461 33226 33227    1
 28462 33226 33228    1
 28463 33229 33230    1
 28464 33229 33231    1
 28465 33232 33233    1
 28466 33232 33234    1
 28467 33235 33236    1
 28468 33235 33237    1
 28469 33238 33239    1
 28470 33238 33240    1
 28471 33241 33242    1
 28472 33241 33243    1
 28473 33244 33245    1
 28474 33244 33246    1
 28475 33247 33248    1
 28476 33247 33249    1
 28477 33250 33251    1
 28478 33250 33252    1
 28479 33253 33254    1
 28480 33253 33255    1
 28481 33256 33257    1
 28482 33256 33258    1
 28483 33259 33260    1
 28484 33259 33261    1
 28485 33262 33263    1
 28486 33262 33264    1
 28487 33265 33266    1
 28488 33265 33267    1
 28489 33268 33269    1
 28490 33268 33270    1
 28491 33271 33272    1
 28492 33271 33273    1
 28493 33274 33275    1
 28494 33274 33276    1
 28495 33277 33278    1
 28496 33277 33279    1
 28497 33280 33281    1
 28498 33280 33282    1
 28499 33283 33284    1
 28500 33283 33285    1
 28501 33286 33287    1
 28502 33286 33288    1
 28503 33289 33290    1
 28504 33289 33291    1
 28505 33292 33293    1
 28506 33292 33294    1
 28507 33295 33296    1
 28508 33295 33297    1
 28509 33298 33299    1
 28510 33298 33300    1
 28511 33301 33302    1
 28512 33301 33303    1
 28513 33304 33305    1
 28514 33304 33306    1
 28515 33307 33308    1
 28516 33307 33309    1
 28517 33310 33311    1
 28518 33310 33312    1
 28519 33313 33314    1
 28520 33313 33315    1
 28521 33316 33317    1
 28522 33316 33318    1
 28523 33319 33320    1
 28524 33319 33321    1
 28525 33322 33323    1
 28526 33322 33324    1
 28527 33325 33326    1
 28528 33325 33327    1
 28529 33328 33329    1
 28530 33328 33330    1
 28531 33331 33332    1
 28532 33331 33333    1
 28533 33334 33335    1
 28534 33334 33336    1
 28535 33337 33338    1
 28536 33337 33339    1
 28537 33340 33341    1
 28538 33340 33342    1
 28539 33343 33344    1
 28540 33343 33345    1
 28541 33346 33347    1
 28542 33346 33348    1
 28543 33349 33350    1
 28544 33349 33351    1
 28545 33352 33353    1
 28546 33352 33354    1
 28547 33355 33356    1
 28548 33355 33357    1
 28549 33358 33359    1
 28550 33358 33360    1
 28551 33361 33362    1
 28552 33361 33363    1
 28553 33364 33365    1
 28554 33364 33366    1
 28555 33367 33368    1
 28556 33367 33369    1
 28557 33370 33371    1
 28558 33370 33372    1
 28559 33373 33374    1
 28560 33373 33375    1
 28561 33376 33377    1
 28562 33376 33378    1
 28563 33379 33380    1
 28564 33379 33381    1
 28565 33382 33383    1
 28566 33382 33384    1
 28567 33385 33386    1
 28568 33385 33387    1
 28569 33388 33389    1
 28570 33388 33390    1
 28571 33391 33392    1
 28572 33391 33393    1
 28573 33394 33395    1
 28574 33394 33396    1
 28575 33397 33398    1
 28576 33397 33399    1
 28577 33400 33401    1
 28578 33400 33402    1
 28579 33403 33404    1
 28580 33403 33405    1
 28581 33406 33407    1
 28582 33406 33408    1
 28583 33409 33410    1
 28584 33409 33411    1
 28585 33412 33413    1
 28586 33412 33414    1
 28587 33415 33416    1
 28588 33415 33417    1
 28589 33418 33419    1
 28590 33418 33420    1
 28591 33421 33422    1
 28592 33421 33423    1
 28593 33424 33425    1
 28594 33424 33426    1
 28595 33427 33428    1
 28596 33427 33429    1
 28597 33430 33431    1
 28598 33430 33432    1
 28599 33433 33434    1
 28600 33433 33435    1
 28601 33436 33437    1
 28602 33436 33438    1
 28603 33439 33440    1
 28604 33439 33441    1
 28605 33442 33443    1
 28606 33442 33444    1
 28607 33445 33446    1
 28608 33445 33447    1
 28609 33448 33449    1
 28610 33448 33450    1
 28611 33451 33452    1
 28612 33451 33453    1
 28613 33454 33455    1
 28614 33454 33456    1
 28615 33457 33458    1
 28616 33457 33459    1
 28617 33460 33461    1
 28618 33460 33462    1
 28619 33463 33464    1
 28620 33463 33465    1
 28621 33466 33467    1
 28622 33466 33468    1
 28623 33469 33470    1
 28624 33469 33471    1
 28625 33472 33473    1
 28626 33472 33474    1
 28627 33475 33476    1
 28628 33475 33477    1
 28629 33478 33479    1
 28630 33478 33480    1
 28631 33481 33482    1
 28632 33481 33483    1
 28633 33484 33485    1
 28634 33484 33486    1
 28635 33487 33488    1
 28636 33487 33489    1
 28637 33490 33491    1
 28638 33490 33492    1
 28639 33493 33494    1
 28640 33493 33495    1
 28641 33496 33497    1
 28642 33496 33498    1
 28643 33499 33500    1
 28644 33499 33501    1
 28645 33502 33503    1
 28646 33502 33504    1
 28647 33505 33506    1
 28648 33505 33507    1
 28649 33508 33509    1
 28650 33508 33510    1
 28651 33511 33512    1
 28652 33511 33513    1
 28653 33514 33515    1
 28654 33514 33516    1
 28655 33517 33518    1
 28656 33517 33519    1
 28657 33520 33521    1
 28658 33520 33522    1
 28659 33523 33524    1
 28660 33523 33525    1
 28661 33526 33527    1
 28662 33526 33528    1
 28663 33529 33530    1
 28664 33529 33531    1
 28665 33532 33533    1
 28666 33532 33534    1
 28667 33535 33536    1
 28668 33535 33537    1
 28669 33538 33539    1
 28670 33538 33540    1
 28671 33541 33542    1
 28672 33541 33543    1
 28673 33544 33545    1
 28674 33544 33546    1
 28675 33547 33548    1
 28676 33547 33549    1
 28677 33550 33551    1
 28678 33550 33552    1
 28679 33553 33554    1
 28680 33553 33555    1
 28681 33556 33557    1
 28682 33556 33558    1
 28683 33559 33560    1
 28684 33559 33561    1
 28685 33562 33563    1
 28686 33562 33564    1
 28687 33565 33566    1
 28688 33565 33567    1
 28689 33568 33569    1
 28690 33568 33570    1
 28691 33571 33572    1
 28692 33571 33573    1
 28693 33574 33575    1
 28694 33574 33576    1
 28695 33577 33578    1
 28696 33577 33579    1
 28697 33580 33581    1
 28698 33580 33582    1
 28699 33583 33584    1
 28700 33583 33585    1
 28701 33586 33587    1
 28702 33586 33588    1
 28703 33589 33590    1
 28704 33589 33591    1
 28705 33592 33593    1
 28706 33592 33594    1
 28707 33595 33596    1
 28708 33595 33597    1
 28709 33598 33599    1
 28710 33598 33600    1
 28711 33601 33602    1
 28712 33601 33603    1
 28713 33604 33605    1
 28714 33604 33606    1
 28715 33607 33608    1
 28716 33607 33609    1
 28717 33610 33611    1
 28718 33610 33612    1
 28719 33613 33614    1
 28720 33613 33615    1
 28721 33616 33617    1
 28722 33616 33618    1
 28723 33619 33620    1
 28724 33619 33621    1
 28725 33622 33623    1
 28726 33622 33624    1
 28727 33625 33626    1
 28728 33625 33627    1
 28729 33628 33629    1
 28730 33628 33630    1
 28731 33631 33632    1
 28732 33631 33633    1
 28733 33634 33635    1
 28734 33634 33636    1
 28735 33637 33638    1
 28736 33637 33639    1
 28737 33640 33641    1
 28738 33640 33642    1
 28739 33643 33644    1
 28740 33643 33645    1
 28741 33646 33647    1
 28742 33646 33648    1
 28743 33649 33650    1
 28744 33649 33651    1
 28745 33652 33653    1
 28746 33652 33654    1
 28747 33655 33656    1
 28748 33655 33657    1
 28749 33658 33659    1
 28750 33658 33660    1
 28751 33661 33662    1
 28752 33661 33663    1
 28753 33664 33665    1
 28754 33664 33666    1
 28755 33667 33668    1
 28756 33667 33669    1
 28757 33670 33671    1
 28758 33670 33672    1
 28759 33673 33674    1
 28760 33673 33675    1
 28761 33676 33677    1
 28762 33676 33678    1
 28763 33679 33680    1
 28764 33679 33681    1
 28765 33682 33683    1
 28766 33682 33684    1
 28767 33685 33686    1
 28768 33685 33687    1
 28769 33688 33689    1
 28770 33688 33690    1
 28771 33691 33692    1
 28772 33691 33693    1
 28773 33694 33695    1
 28774 33694 33696    1
 28775 33697 33698    1
 28776 33697 33699    1
 28777 33700 33701    1
 28778 33700 33702    1
 28779 33703 33704    1
 28780 33703 33705    1
 28781 33706 33707    1
 28782 33706 33708    1
 28783 33709 33710    1
 28784 33709 33711    1
 28785 33712 33713    1
 28786 33712 33714    1
 28787 33715 33716    1
 28788 33715 33717    1
 28789 33718 33719    1
 28790 33718 33720    1
 28791 33721 33722    1
 28792 33721 33723    1
 28793 33724 33725    1
 28794 33724 33726    1
 28795 33727 33728    1
 28796 33727 33729    1
 28797 33730 33731    1
 28798 33730 33732    1
 28799 33733 33734    1
 28800 33733 33735    1
 28801 33736 33737    1
 28802 33736 33738    1
 28803 33739 33740    1
 28804 33739 33741    1
 28805 33742 33743    1
 28806 33742 33744    1
 28807 33745 33746    1
 28808 33745 33747    1
 28809 33748 33749    1
 28810 33748 33750    1
 28811 33751 33752    1
 28812 33751 33753    1
 28813 33754 33755    1
 28814 33754 33756    1
 28815 33757 33758    1
 28816 33757 33759    1
 28817 33760 33761    1
 28818 33760 33762    1
 28819 33763 33764    1
 28820 33763 33765    1
 28821 33766 33767    1
 28822 33766 33768    1
 28823 33769 33770    1
 28824 33769 33771    1
 28825 33772 33773    1
 28826 33772 33774    1
 28827 33775 33776    1
 28828 33775 33777    1
 28829 33778 33779    1
 28830 33778 33780    1
 28831 33781 33782    1
 28832 33781 33783    1
 28833 33784 33785    1
 28834 33784 33786    1
 28835 33787 33788    1
 28836 33787 33789    1
 28837 33790 33791    1
 28838 33790 33792    1
 28839 33793 33794    1
 28840 33793 33795    1
 28841 33796 33797    1
 28842 33796 33798    1
 28843 33799 33800    1
 28844 33799 33801    1
 28845 33802 33803    1
 28846 33802 33804    1
 28847 33805 33806    1
 28848 33805 33807    1
 28849 33808 33809    1
 28850 33808 33810    1
 28851 33811 33812    1
 28852 33811 33813    1
 28853 33814 33815    1
 28854 33814 33816    1
 28855 33817 33818    1
 28856 33817 33819    1
 28857 33820 33821    1
 28858 33820 33822    1
 28859 33823 33824    1
 28860 33823 33825    1
 28861 33826 33827    1
 28862 33826 33828    1
 28863 33829 33830    1
 28864 33829 33831    1
 28865 33832 33833    1
 28866 33832 33834    1
 28867 33835 33836    1
 28868 33835 33837    1
 28869 33838 33839    1
 28870 33838 33840    1
 28871 33841 33842    1
 28872 33841 33843    1
 28873 33844 33845    1
 28874 33844 33846    1
 28875 33847 33848    1
 28876 33847 33849    1
 28877 33850 33851    1
 28878 33850 33852    1
 28879 33853 33854    1
 28880 33853 33855    1
 28881 33856 33857    1
 28882 33856 33858    1
 28883 33859 33860    1
 28884 33859 33861    1
 28885 33862 33863    1
 28886 33862 33864    1
 28887 33865 33866    1
 28888 33865 33867    1
 28889 33868 33869    1
 28890 33868 33870    1
 28891 33871 33872    1
 28892 33871 33873    1
 28893 33874 33875    1
 28894 33874 33876    1
 28895 33877 33878    1
 28896 33877 33879    1
 28897 33880 33881    1
 28898 33880 33882    1
 28899 33883 33884    1
 28900 33883 33885    1
 28901 33886 33887    1
 28902 33886 33888    1
 28903 33889 33890    1
 28904 33889 33891    1
 28905 33892 33893    1
 28906 33892 33894    1
 28907 33895 33896    1
 28908 33895 33897    1
 28909 33898 33899    1
 28910 33898 33900    1
 28911 33901 33902    1
 28912 33901 33903    1
 28913 33904 33905    1
 28914 33904 33906    1
 28915 33907 33908    1
 28916 33907 33909    1
 28917 33910 33911    1
 28918 33910 33912    1
 28919 33913 33914    1
 28920 33913 33915    1
 28921 33916 33917    1
 28922 33916 33918    1
 28923 33919 33920    1
 28924 33919 33921    1
 28925 33922 33923    1
 28926 33922 33924    1
 28927 33925 33926    1
 28928 33925 33927    1
 28929 33928 33929    1
 28930 33928 33930    1
 28931 33931 33932    1
 28932 33931 33933    1
 28933 33934 33935    1
 28934 33934 33936    1
 28935 33937 33938    1
 28936 33937 33939    1
 28937 33940 33941    1
 28938 33940 33942    1
 28939 33943 33944    1
 28940 33943 33945    1
 28941 33946 33947    1
 28942 33946 33948    1
 28943 33949 33950    1
 28944 33949 33951    1
 28945 33952 33953    1
 28946 33952 33954    1
 28947 33955 33956    1
 28948 33955 33957    1
 28949 33958 33959    1
 28950 33958 33960    1
 28951 33961 33962    1
 28952 33961 33963    1
 28953 33964 33965    1
 28954 33964 33966    1
 28955 33967 33968    1
 28956 33967 33969    1
 28957 33970 33971    1
 28958 33970 33972    1
 28959 33973 33974    1
 28960 33973 33975    1
 28961 33976 33977    1
 28962 33976 33978    1
 28963 33979 33980    1
 28964 33979 33981    1
 28965 33982 33983    1
 28966 33982 33984    1
 28967 33985 33986    1
 28968 33985 33987    1
 28969 33988 33989    1
 28970 33988 33990    1
 28971 33991 33992    1
 28972 33991 33993    1
 28973 33994 33995    1
 28974 33994 33996    1
 28975 33997 33998    1
 28976 33997 33999    1
 28977 34000 34001    1
 28978 34000 34002    1
 28979 34003 34004    1
 28980 34003 34005    1
 28981 34006 34007    1
 28982 34006 34008    1
 28983 34009 34010    1
 28984 34009 34011    1
 28985 34012 34013    1
 28986 34012 34014    1
 28987 34015 34016    1
 28988 34015 34017    1
 28989 34018 34019    1
 28990 34018 34020    1
 28991 34021 34022    1
 28992 34021 34023    1
 28993 34024 34025    1
 28994 34024 34026    1
 28995 34027 34028    1
 28996 34027 34029    1
 28997 34030 34031    1
 28998 34030 34032    1
 28999 34033 34034    1
 29000 34033 34035    1
 29001 34036 34037    1
 29002 34036 34038    1
 29003 34039 34040    1
 29004 34039 34041    1
 29005 34042 34043    1
 29006 34042 34044    1
 29007 34045 34046    1
 29008 34045 34047    1
 29009 34048 34049    1
 29010 34048 34050    1
 29011 34051 34052    1
 29012 34051 34053    1
 29013 34054 34055    1
 29014 34054 34056    1
 29015 34057 34058    1
 29016 34057 34059    1
 29017 34060 34061    1
 29018 34060 34062    1
 29019 34063 34064    1
 29020 34063 34065    1
 29021 34066 34067    1
 29022 34066 34068    1
 29023 34069 34070    1
 29024 34069 34071    1
 29025 34072 34073    1
 29026 34072 34074    1
 29027 34075 34076    1
 29028 34075 34077    1
 29029 34078 34079    1
 29030 34078 34080    1
 29031 34081 34082    1
 29032 34081 34083    1
 29033 34084 34085    1
 29034 34084 34086    1
 29035 34087 34088    1
 29036 34087 34089    1
 29037 34090 34091    1
 29038 34090 34092    1
 29039 34093 34094    1
 29040 34093 34095    1
 29041 34096 34097    1
 29042 34096 34098    1
 29043 34099 34100    1
 29044 34099 34101    1
 29045 34102 34103    1
 29046 34102 34104    1
 29047 34105 34106    1
 29048 34105 34107    1
 29049 34108 34109    1
 29050 34108 34110    1
 29051 34111 34112    1
 29052 34111 34113    1
 29053 34114 34115    1
 29054 34114 34116    1
 29055 34117 34118    1
 29056 34117 34119    1
 29057 34120 34121    1
 29058 34120 34122    1
 29059 34123 34124    1
 29060 34123 34125    1
 29061 34126 34127    1
 29062 34126 34128    1
 29063 34129 34130    1
 29064 34129 34131    1
 29065 34132 34133    1
 29066 34132 34134    1
 29067 34135 34136    1
 29068 34135 34137    1
 29069 34138 34139    1
 29070 34138 34140    1
 29071 34141 34142    1
 29072 34141 34143    1
 29073 34144 34145    1
 29074 34144 34146    1
 29075 34147 34148    1
 29076 34147 34149    1
 29077 34150 34151    1
 29078 34150 34152    1
 29079 34153 34154    1
 29080 34153 34155    1
 29081 34156 34157    1
 29082 34156 34158    1
 29083 34159 34160    1
 29084 34159 34161    1
 29085 34162 34163    1
 29086 34162 34164    1
 29087 34165 34166    1
 29088 34165 34167    1
 29089 34168 34169    1
 29090 34168 34170    1
 29091 34171 34172    1
 29092 34171 34173    1
 29093 34174 34175    1
 29094 34174 34176    1
 29095 34177 34178    1
 29096 34177 34179    1
 29097 34180 34181    1
 29098 34180 34182    1
 29099 34183 34184    1
 29100 34183 34185    1
 29101 34186 34187    1
 29102 34186 34188    1
 29103 34189 34190    1
 29104 34189 34191    1
 29105 34192 34193    1
 29106 34192 34194    1
 29107 34195 34196    1
 29108 34195 34197    1
 29109 34198 34199    1
 29110 34198 34200    1
 29111 34201 34202    1
 29112 34201 34203    1
 29113 34204 34205    1
 29114 34204 34206    1
 29115 34207 34208    1
 29116 34207 34209    1
 29117 34210 34211    1
 29118 34210 34212    1
 29119 34213 34214    1
 29120 34213 34215    1
 29121 34216 34217    1
 29122 34216 34218    1
 29123 34219 34220    1
 29124 34219 34221    1
 29125 34222 34223    1
 29126 34222 34224    1
 29127 34225 34226    1
 29128 34225 34227    1
 29129 34228 34229    1
 29130 34228 34230    1
 29131 34231 34232    1
 29132 34231 34233    1
 29133 34234 34235    1
 29134 34234 34236    1
 29135 34237 34238    1
 29136 34237 34239    1
 29137 34240 34241    1
 29138 34240 34242    1
 29139 34243 34244    1
 29140 34243 34245    1
 29141 34246 34247    1
 29142 34246 34248    1
 29143 34249 34250    1
 29144 34249 34251    1
 29145 34252 34253    1
 29146 34252 34254    1
 29147 34255 34256    1
 29148 34255 34257    1
 29149 34258 34259    1
 29150 34258 34260    1
 29151 34261 34262    1
 29152 34261 34263    1
 29153 34264 34265    1
 29154 34264 34266    1
 29155 34267 34268    1
 29156 34267 34269    1
 29157 34270 34271    1
 29158 34270 34272    1
 29159 34273 34274    1
 29160 34273 34275    1
 29161 34276 34277    1
 29162 34276 34278    1
 29163 34279 34280    1
 29164 34279 34281    1
 29165 34282 34283    1
 29166 34282 34284    1
 29167 34285 34286    1
 29168 34285 34287    1
 29169 34288 34289    1
 29170 34288 34290    1
 29171 34291 34292    1
 29172 34291 34293    1
 29173 34294 34295    1
 29174 34294 34296    1
 29175 34297 34298    1
 29176 34297 34299    1
 29177 34300 34301    1
 29178 34300 34302    1
 29179 34303 34304    1
 29180 34303 34305    1
 29181 34306 34307    1
 29182 34306 34308    1
 29183 34309 34310    1
 29184 34309 34311    1
 29185 34312 34313    1
 29186 34312 34314    1
 29187 34315 34316    1
 29188 34315 34317    1
 29189 34318 34319    1
 29190 34318 34320    1
 29191 34321 34322    1
 29192 34321 34323    1
 29193 34324 34325    1
 29194 34324 34326    1
 29195 34327 34328    1
 29196 34327 34329    1
 29197 34330 34331    1
 29198 34330 34332    1
 29199 34333 34334    1
 29200 34333 34335    1
 29201 34336 34337    1
 29202 34336 34338    1
 29203 34339 34340    1
 29204 34339 34341    1
 29205 34342 34343    1
 29206 34342 34344    1
 29207 34345 34346    1
 29208 34345 34347    1
 29209 34348 34349    1
 29210 34348 34350    1
 29211 34351 34352    1
 29212 34351 34353    1
 29213 34354 34355    1
 29214 34354 34356    1
 29215 34357 34358    1
 29216 34357 34359    1
 29217 34360 34361    1
 29218 34360 34362    1
 29219 34363 34364    1
 29220 34363 34365    1
 29221 34366 34367    1
 29222 34366 34368    1
 29223 34369 34370    1
 29224 34369 34371    1
 29225 34372 34373    1
 29226 34372 34374    1
 29227 34375 34376    1
 29228 34375 34377    1
 29229 34378 34379    1
 29230 34378 34380    1
 29231 34381 34382    1
 29232 34381 34383    1
 29233 34384 34385    1
 29234 34384 34386    1
 29235 34387 34388    1
 29236 34387 34389    1
 29237 34390 34391    1
 29238 34390 34392    1
 29239 34393 34394    1
 29240 34393 34395    1
 29241 34396 34397    1
 29242 34396 34398    1
 29243 34399 34400    1
 29244 34399 34401    1
 29245 34402 34403    1
 29246 34402 34404    1
 29247 34405 34406    1
 29248 34405 34407    1
 29249 34408 34409    1
 29250 34408 34410    1
 29251 34411 34412    1
 29252 34411 34413    1
 29253 34414 34415    1
 29254 34414 34416    1
 29255 34417 34418    1
 29256 34417 34419    1
 29257 34420 34421    1
 29258 34420 34422    1
 29259 34423 34424    1
 29260 34423 34425    1
 29261 34426 34427    1
 29262 34426 34428    1
 29263 34429 34430    1
 29264 34429 34431    1
 29265 34432 34433    1
 29266 34432 34434    1
 29267 34435 34436    1
 29268 34435 34437    1
 29269 34438 34439    1
 29270 34438 34440    1
 29271 34441 34442    1
 29272 34441 34443    1
 29273 34444 34445    1
 29274 34444 34446    1
 29275 34447 34448    1
 29276 34447 34449    1
 29277 34450 34451    1
 29278 34450 34452    1
 29279 34453 34454    1
 29280 34453 34455    1
 29281 34456 34457    1
 29282 34456 34458    1
 29283 34459 34460    1
 29284 34459 34461    1
 29285 34462 34463    1
 29286 34462 34464    1
 29287 34465 34466    1
 29288 34465 34467    1
 29289 34468 34469    1
 29290 34468 34470    1
 29291 34471 34472    1
 29292 34471 34473    1
 29293 34474 34475    1
 29294 34474 34476    1
 29295 34477 34478    1
 29296 34477 34479    1
 29297 34480 34481    1
 29298 34480 34482    1
 29299 34483 34484    1
 29300 34483 34485    1
 29301 34486 34487    1
 29302 34486 34488    1
 29303 34489 34490    1
 29304 34489 34491    1
 29305 34492 34493    1
 29306 34492 34494    1
 29307 34495 34496    1
 29308 34495 34497    1
 29309 34498 34499    1
 29310 34498 34500    1
 29311 34501 34502    1
 29312 34501 34503    1
 29313 34504 34505    1
 29314 34504 34506    1
 29315 34507 34508    1
 29316 34507 34509    1
 29317 34510 34511    1
 29318 34510 34512    1
 29319 34513 34514    1
 29320 34513 34515    1
 29321 34516 34517    1
 29322 34516 34518    1
 29323 34519 34520    1
 29324 34519 34521    1
 29325 34522 34523    1
 29326 34522 34524    1
 29327 34525 34526    1
 29328 34525 34527    1
 29329 34528 34529    1
 29330 34528 34530    1
 29331 34531 34532    1
 29332 34531 34533    1
 29333 34534 34535    1
 29334 34534 34536    1
 29335 34537 34538    1
 29336 34537 34539    1
 29337 34540 34541    1
 29338 34540 34542    1
 29339 34543 34544    1
 29340 34543 34545    1
 29341 34546 34547    1
 29342 34546 34548    1
 29343 34549 34550    1
 29344 34549 34551    1
 29345 34552 34553    1
 29346 34552 34554    1
 29347 34555 34556    1
 29348 34555 34557    1
 29349 34558 34559    1
 29350 34558 34560    1
 29351 34561 34562    1
 29352 34561 34563    1
 29353 34564 34565    1
 29354 34564 34566    1
 29355 34567 34568    1
 29356 34567 34569    1
 29357 34570 34571    1
 29358 34570 34572    1
 29359 34573 34574    1
 29360 34573 34575    1
 29361 34576 34577    1
 29362 34576 34578    1
 29363 34579 34580    1
 29364 34579 34581    1
 29365 34582 34583    1
 29366 34582 34584    1
 29367 34585 34586    1
 29368 34585 34587    1
 29369 34588 34589    1
 29370 34588 34590    1
 29371 34591 34592    1
 29372 34591 34593    1
 29373 34594 34595    1
 29374 34594 34596    1
 29375 34597 34598    1
 29376 34597 34599    1
 29377 34600 34601    1
 29378 34600 34602    1
 29379 34603 34604    1
 29380 34603 34605    1
 29381 34606 34607    1
 29382 34606 34608    1
 29383 34609 34610    1
 29384 34609 34611    1
 29385 34612 34613    1
 29386 34612 34614    1
 29387 34615 34616    1
 29388 34615 34617    1
 29389 34618 34619    1
 29390 34618 34620    1
 29391 34621 34622    1
 29392 34621 34623    1
 29393 34624 34625    1
 29394 34624 34626    1
 29395 34627 34628    1
 29396 34627 34629    1
 29397 34630 34631    1
 29398 34630 34632    1
 29399 34633 34634    1
 29400 34633 34635    1
 29401 34636 34637    1
 29402 34636 34638    1
 29403 34639 34640    1
 29404 34639 34641    1
 29405 34642 34643    1
 29406 34642 34644    1
 29407 34645 34646    1
 29408 34645 34647    1
 29409 34648 34649    1
 29410 34648 34650    1
 29411 34651 34652    1
 29412 34651 34653    1
 29413 34654 34655    1
 29414 34654 34656    1
 29415 34657 34658    1
 29416 34657 34659    1
 29417 34660 34661    1
 29418 34660 34662    1
 29419 34663 34664    1
 29420 34663 34665    1
 29421 34666 34667    1
 29422 34666 34668    1
 29423 34669 34670    1
 29424 34669 34671    1
 29425 34672 34673    1
 29426 34672 34674    1
 29427 34675 34676    1
 29428 34675 34677    1
 29429 34678 34679    1
 29430 34678 34680    1
 29431 34681 34682    1
 29432 34681 34683    1
 29433 34684 34685    1
 29434 34684 34686    1
 29435 34687 34688    1
 29436 34687 34689    1
 29437 34690 34691    1
 29438 34690 34692    1
 29439 34693 34694    1
 29440 34693 34695    1
 29441 34696 34697    1
 29442 34696 34698    1
 29443 34699 34700    1
 29444 34699 34701    1
 29445 34702 34703    1
 29446 34702 34704    1
 29447 34705 34706    1
 29448 34705 34707    1
 29449 34708 34709    1
 29450 34708 34710    1
 29451 34711 34712    1
 29452 34711 34713    1
 29453 34714 34715    1
 29454 34714 34716    1
 29455 34717 34718    1
 29456 34717 34719    1
 29457 34720 34721    1
 29458 34720 34722    1
 29459 34723 34724    1
 29460 34723 34725    1
 29461 34726 34727    1
 29462 34726 34728    1
 29463 34729 34730    1
 29464 34729 34731    1
 29465 34732 34733    1
 29466 34732 34734    1
 29467 34735 34736    1
 29468 34735 34737    1
 29469 34738 34739    1
 29470 34738 34740    1
 29471 34741 34742    1
 29472 34741 34743    1
 29473 34744 34745    1
 29474 34744 34746    1
 29475 34747 34748    1
 29476 34747 34749    1
 29477 34750 34751    1
 29478 34750 34752    1
 29479 34753 34754    1
 29480 34753 34755    1
 29481 34756 34757    1
 29482 34756 34758    1
 29483 34759 34760    1
 29484 34759 34761    1
 29485 34762 34763    1
 29486 34762 34764    1
 29487 34765 34766    1
 29488 34765 34767    1
 29489 34768 34769    1
 29490 34768 34770    1
 29491 34771 34772    1
 29492 34771 34773    1
 29493 34774 34775    1
 29494 34774 34776    1
 29495 34777 34778    1
 29496 34777 34779    1
 29497 34780 34781    1
 29498 34780 34782    1
 29499 34783 34784    1
 29500 34783 34785    1
 29501 34786 34787    1
 29502 34786 34788    1
 29503 34789 34790    1
 29504 34789 34791    1
 29505 34792 34793    1
 29506 34792 34794    1
 29507 34795 34796    1
 29508 34795 34797    1
 29509 34798 34799    1
 29510 34798 34800    1
 29511 34801 34802    1
 29512 34801 34803    1
 29513 34804 34805    1
 29514 34804 34806    1
 29515 34807 34808    1
 29516 34807 34809    1
 29517 34810 34811    1
 29518 34810 34812    1
 29519 34813 34814    1
 29520 34813 34815    1
 29521 34816 34817    1
 29522 34816 34818    1
 29523 34819 34820    1
 29524 34819 34821    1
 29525 34822 34823    1
 29526 34822 34824    1
 29527 34825 34826    1
 29528 34825 34827    1
 29529 34828 34829    1
 29530 34828 34830    1
 29531 34831 34832    1
 29532 34831 34833    1
 29533 34834 34835    1
 29534 34834 34836    1
 29535 34837 34838    1
 29536 34837 34839    1
 29537 34840 34841    1
 29538 34840 34842    1
 29539 34843 34844    1
 29540 34843 34845    1
 29541 34846 34847    1
 29542 34846 34848    1
 29543 34849 34850    1
 29544 34849 34851    1
 29545 34852 34853    1
 29546 34852 34854    1
 29547 34855 34856    1
 29548 34855 34857    1
 29549 34858 34859    1
 29550 34858 34860    1
 29551 34861 34862    1
 29552 34861 34863    1
 29553 34864 34865    1
 29554 34864 34866    1
 29555 34867 34868    1
 29556 34867 34869    1
 29557 34870 34871    1
 29558 34870 34872    1
 29559 34873 34874    1
 29560 34873 34875    1
 29561 34876 34877    1
 29562 34876 34878    1
 29563 34879 34880    1
 29564 34879 34881    1
 29565 34882 34883    1
 29566 34882 34884    1
 29567 34885 34886    1
 29568 34885 34887    1
 29569 34888 34889    1
 29570 34888 34890    1
 29571 34891 34892    1
 29572 34891 34893    1
 29573 34894 34895    1
 29574 34894 34896    1
 29575 34897 34898    1
 29576 34897 34899    1
 29577 34900 34901    1
 29578 34900 34902    1
 29579 34903 34904    1
 29580 34903 34905    1
 29581 34906 34907    1
 29582 34906 34908    1
 29583 34909 34910    1
 29584 34909 34911    1
 29585 34912 34913    1
 29586 34912 34914    1
 29587 34915 34916    1
 29588 34915 34917    1
 29589 34918 34919    1
 29590 34918 34920    1
 29591 34921 34922    1
 29592 34921 34923    1
 29593 34924 34925    1
 29594 34924 34926    1
 29595 34927 34928    1
 29596 34927 34929    1
 29597 34930 34931    1
 29598 34930 34932    1
 29599 34933 34934    1
 29600 34933 34935    1
 29601 34936 34937    1
 29602 34936 34938    1
 29603 34939 34940    1
 29604 34939 34941    1
 29605 34942 34943    1
 29606 34942 34944    1
 29607 34945 34946    1
 29608 34945 34947    1
 29609 34948 34949    1
 29610 34948 34950    1
 29611 34951 34952    1
 29612 34951 34953    1
 29613 34954 34955    1
 29614 34954 34956    1
 29615 34957 34958    1
 29616 34957 34959    1
 29617 34960 34961    1
 29618 34960 34962    1
 29619 34963 34964    1
 29620 34963 34965    1
 29621 34966 34967    1
 29622 34966 34968    1
 29623 34969 34970    1
 29624 34969 34971    1
 29625 34972 34973    1
 29626 34972 34974    1
 29627 34975 34976    1
 29628 34975 34977    1
 29629 34978 34979    1
 29630 34978 34980    1
 29631 34981 34982    1
 29632 34981 34983    1
 29633 34984 34985    1
 29634 34984 34986    1
 29635 34987 34988    1
 29636 34987 34989    1
 29637 34990 34991    1
 29638 34990 34992    1
 29639 34993 34994    1
 29640 34993 34995    1
 29641 34996 34997    1
 29642 34996 34998    1
 29643 34999 35000    1
 29644 34999 35001    1
 29645 35002 35003    1
 29646 35002 35004    1
 29647 35005 35006    1
 29648 35005 35007    1
 29649 35008 35009    1
 29650 35008 35010    1
 29651 35011 35012    1
 29652 35011 35013    1
 29653 35014 35015    1
 29654 35014 35016    1
 29655 35017 35018    1
 29656 35017 35019    1
 29657 35020 35021    1
 29658 35020 35022    1
 29659 35023 35024    1
 29660 35023 35025    1
 29661 35026 35027    1
 29662 35026 35028    1
 29663 35029 35030    1
 29664 35029 35031    1
 29665 35032 35033    1
 29666 35032 35034    1
 29667 35035 35036    1
 29668 35035 35037    1
 29669 35038 35039    1
 29670 35038 35040    1
 29671 35041 35042    1
 29672 35041 35043    1
 29673 35044 35045    1
 29674 35044 35046    1
 29675 35047 35048    1
 29676 35047 35049    1
 29677 35050 35051    1
 29678 35050 35052    1
 29679 35053 35054    1
 29680 35053 35055    1
 29681 35056 35057    1
 29682 35056 35058    1
 29683 35059 35060    1
 29684 35059 35061    1
 29685 35062 35063    1
 29686 35062 35064    1
 29687 35065 35066    1
 29688 35065 35067    1
 29689 35068 35069    1
 29690 35068 35070    1
 29691 35071 35072    1
 29692 35071 35073    1
 29693 35074 35075    1
 29694 35074 35076    1
 29695 35077 35078    1
 29696 35077 35079    1
 29697 35080 35081    1
 29698 35080 35082    1
 29699 35083 35084    1
 29700 35083 35085    1
 29701 35086 35087    1
 29702 35086 35088    1
 29703 35089 35090    1
 29704 35089 35091    1
 29705 35092 35093    1
 29706 35092 35094    1
 29707 35095 35096    1
 29708 35095 35097    1
 29709 35098 35099    1
 29710 35098 35100    1
 29711 35101 35102    1
 29712 35101 35103    1
 29713 35104 35105    1
 29714 35104 35106    1
 29715 35107 35108    1
 29716 35107 35109    1
 29717 35110 35111    1
 29718 35110 35112    1
 29719 35113 35114    1
 29720 35113 35115    1
 29721 35116 35117    1
 29722 35116 35118    1
 29723 35119 35120    1
 29724 35119 35121    1
 29725 35122 35123    1
 29726 35122 35124    1
 29727 35125 35126    1
 29728 35125 35127    1
 29729 35128 35129    1
 29730 35128 35130    1
 29731 35131 35132    1
 29732 35131 35133    1
 29733 35134 35135    1
 29734 35134 35136    1
 29735 35137 35138    1
 29736 35137 35139    1
 29737 35140 35141    1
 29738 35140 35142    1
 29739 35143 35144    1
 29740 35143 35145    1
 29741 35146 35147    1
 29742 35146 35148    1
 29743 35149 35150    1
 29744 35149 35151    1
 29745 35152 35153    1
 29746 35152 35154    1
 29747 35155 35156    1
 29748 35155 35157    1
 29749 35158 35159    1
 29750 35158 35160    1
 29751 35161 35162    1
 29752 35161 35163    1
 29753 35164 35165    1
 29754 35164 35166    1
 29755 35167 35168    1
 29756 35167 35169    1
 29757 35170 35171    1
 29758 35170 35172    1
 29759 35173 35174    1
 29760 35173 35175    1
 29761 35176 35177    1
 29762 35176 35178    1
 29763 35179 35180    1
 29764 35179 35181    1
 29765 35182 35183    1
 29766 35182 35184    1
 29767 35185 35186    1
 29768 35185 35187    1
 29769 35188 35189    1
 29770 35188 35190    1
 29771 35191 35192    1
 29772 35191 35193    1
 29773 35194 35195    1
 29774 35194 35196    1
 29775 35197 35198    1
 29776 35197 35199    1
 29777 35200 35201    1
 29778 35200 35202    1
 29779 35203 35204    1
 29780 35203 35205    1
 29781 35206 35207    1
 29782 35206 35208    1
 29783 35209 35210    1
 29784 35209 35211    1
 29785 35212 35213    1
 29786 35212 35214    1
 29787 35215 35216    1
 29788 35215 35217    1
 29789 35218 35219    1
 29790 35218 35220    1
 29791 35221 35222    1
 29792 35221 35223    1
 29793 35224 35225    1
 29794 35224 35226    1
 29795 35227 35228    1
 29796 35227 35229    1
 29797 35230 35231    1
 29798 35230 35232    1
 29799 35233 35234    1
 29800 35233 35235    1
 29801 35236 35237    1
 29802 35236 35238    1
 29803 35239 35240    1
 29804 35239 35241    1
 29805 35242 35243    1
 29806 35242 35244    1
 29807 35245 35246    1
 29808 35245 35247    1
 29809 35248 35249    1
 29810 35248 35250    1
 29811 35251 35252    1
 29812 35251 35253    1
 29813 35254 35255    1
 29814 35254 35256    1
 29815 35257 35258    1
 29816 35257 35259    1
 29817 35260 35261    1
 29818 35260 35262    1
 29819 35263 35264    1
 29820 35263 35265    1
 29821 35266 35267    1
 29822 35266 35268    1
 29823 35269 35270    1
 29824 35269 35271    1
 29825 35272 35273    1
 29826 35272 35274    1
 29827 35275 35276    1
 29828 35275 35277    1
 29829 35278 35279    1
 29830 35278 35280    1
 29831 35281 35282    1
 29832 35281 35283    1
 29833 35284 35285    1
 29834 35284 35286    1
 29835 35287 35288    1
 29836 35287 35289    1
 29837 35290 35291    1
 29838 35290 35292    1
 29839 35293 35294    1
 29840 35293 35295    1
 29841 35296 35297    1
 29842 35296 35298    1
 29843 35299 35300    1
 29844 35299 35301    1
 29845 35302 35303    1
 29846 35302 35304    1
 29847 35305 35306    1
 29848 35305 35307    1
 29849 35308 35309    1
 29850 35308 35310    1
 29851 35311 35312    1
 29852 35311 35313    1
 29853 35314 35315    1
 29854 35314 35316    1
 29855 35317 35318    1
 29856 35317 35319    1
 29857 35320 35321    1
 29858 35320 35322    1
 29859 35323 35324    1
 29860 35323 35325    1
 29861 35326 35327    1
 29862 35326 35328    1
 29863 35329 35330    1
 29864 35329 35331    1
 29865 35332 35333    1
 29866 35332 35334    1
 29867 35335 35336    1
 29868 35335 35337    1
 29869 35338 35339    1
 29870 35338 35340    1
 29871 35341 35342    1
 29872 35341 35343    1
 29873 35344 35345    1
 29874 35344 35346    1
 29875 35347 35348    1
 29876 35347 35349    1
 29877 35350 35351    1
 29878 35350 35352    1
 29879 35353 35354    1
 29880 35353 35355    1
 29881 35356 35357    1
 29882 35356 35358    1
 29883 35359 35360    1
 29884 35359 35361    1
 29885 35362 35363    1
 29886 35362 35364    1
 29887 35365 35366    1
 29888 35365 35367    1
 29889 35368 35369    1
 29890 35368 35370    1
 29891 35371 35372    1
 29892 35371 35373    1
 29893 35374 35375    1
 29894 35374 35376    1
 29895 35377 35378    1
 29896 35377 35379    1
 29897 35380 35381    1
 29898 35380 35382    1
 29899 35383 35384    1
 29900 35383 35385    1
 29901 35386 35387    1
 29902 35386 35388    1
 29903 35389 35390    1
 29904 35389 35391    1
 29905 35392 35393    1
 29906 35392 35394    1
 29907 35395 35396    1
 29908 35395 35397    1
 29909 35398 35399    1
 29910 35398 35400    1
 29911 35401 35402    1
 29912 35401 35403    1
 29913 35404 35405    1
 29914 35404 35406    1
 29915 35407 35408    1
 29916 35407 35409    1
 29917 35410 35411    1
 29918 35410 35412    1
 29919 35413 35414    1
 29920 35413 35415    1
 29921 35416 35417    1
 29922 35416 35418    1
 29923 35419 35420    1
 29924 35419 35421    1
 29925 35422 35423    1
 29926 35422 35424    1
 29927 35425 35426    1
 29928 35425 35427    1
 29929 35428 35429    1
 29930 35428 35430    1
 29931 35431 35432    1
 29932 35431 35433    1
 29933 35434 35435    1
 29934 35434 35436    1
 29935 35437 35438    1
 29936 35437 35439    1
 29937 35440 35441    1
 29938 35440 35442    1
 29939 35443 35444    1
 29940 35443 35445    1
 29941 35446 35447    1
 29942 35446 35448    1
 29943 35449 35450    1
 29944 35449 35451    1
 29945 35452 35453    1
 29946 35452 35454    1
 29947 35455 35456    1
 29948 35455 35457    1
 29949 35458 35459    1
 29950 35458 35460    1
 29951 35461 35462    1
 29952 35461 35463    1
 29953 35464 35465    1
 29954 35464 35466    1
 29955 35467 35468    1
 29956 35467 35469    1
 29957 35470 35471    1
 29958 35470 35472    1
 29959 35473 35474    1
 29960 35473 35475    1
 29961 35476 35477    1
 29962 35476 35478    1
 29963 35479 35480    1
 29964 35479 35481    1
 29965 35482 35483    1
 29966 35482 35484    1
 29967 35485 35486    1
 29968 35485 35487    1
 29969 35488 35489    1
 29970 35488 35490    1
 29971 35491 35492    1
 29972 35491 35493    1
 29973 35494 35495    1
 29974 35494 35496    1
 29975 35497 35498    1
 29976 35497 35499    1
 29977 35500 35501    1
 29978 35500 35502    1
 29979 35503 35504    1
 29980 35503 35505    1
 29981 35506 35507    1
 29982 35506 35508    1
 29983 35509 35510    1
 29984 35509 35511    1
 29985 35512 35513    1
 29986 35512 35514    1
 29987 35515 35516    1
 29988 35515 35517    1
 29989 35518 35519    1
 29990 35518 35520    1
 29991 35521 35522    1
 29992 35521 35523    1
 29993 35524 35525    1
 29994 35524 35526    1
 29995 35527 35528    1
 29996 35527 35529    1
 29997 35530 35531    1
 29998 35530 35532    1
 29999 35533 35534    1
 30000 35533 35535    1
 30001 35536 35537    1
 30002 35536 35538    1
 30003 35539 35540    1
 30004 35539 35541    1
 30005 35542 35543    1
 30006 35542 35544    1
 30007 35545 35546    1
 30008 35545 35547    1
 30009 35548 35549    1
 30010 35548 35550    1
 30011 35551 35552    1
 30012 35551 35553    1
 30013 35554 35555    1
 30014 35554 35556    1
 30015 35557 35558    1
 30016 35557 35559    1
 30017 35560 35561    1
 30018 35560 35562    1
 30019 35563 35564    1
 30020 35563 35565    1
 30021 35566 35567    1
 30022 35566 35568    1
 30023 35569 35570    1
 30024 35569 35571    1
 30025 35572 35573    1
 30026 35572 35574    1
 30027 35575 35576    1
 30028 35575 35577    1
 30029 35578 35579    1
 30030 35578 35580    1
 30031 35581 35582    1
 30032 35581 35583    1
 30033 35584 35585    1
 30034 35584 35586    1
 30035 35587 35588    1
 30036 35587 35589    1
 30037 35590 35591    1
 30038 35590 35592    1
 30039 35593 35594    1
 30040 35593 35595    1
 30041 35596 35597    1
 30042 35596 35598    1
 30043 35599 35600    1
 30044 35599 35601    1
 30045 35602 35603    1
 30046 35602 35604    1
 30047 35605 35606    1
 30048 35605 35607    1
 30049 35608 35609    1
 30050 35608 35610    1
 30051 35611 35612    1
 30052 35611 35613    1
 30053 35614 35615    1
 30054 35614 35616    1
 30055 35617 35618    1
 30056 35617 35619    1
 30057 35620 35621    1
 30058 35620 35622    1
 30059 35623 35624    1
 30060 35623 35625    1
 30061 35626 35627    1
 30062 35626 35628    1
 30063 35629 35630    1
 30064 35629 35631    1
 30065 35632 35633    1
 30066 35632 35634    1
 30067 35635 35636    1
 30068 35635 35637    1
 30069 35638 35639    1
 30070 35638 35640    1
 30071 35641 35642    1
 30072 35641 35643    1
 30073 35644 35645    1
 30074 35644 35646    1
 30075 35647 35648    1
 30076 35647 35649    1
 30077 35650 35651    1
 30078 35650 35652    1
 30079 35653 35654    1
 30080 35653 35655    1
 30081 35656 35657    1
 30082 35656 35658    1
 30083 35659 35660    1
 30084 35659 35661    1
 30085 35662 35663    1
 30086 35662 35664    1
 30087 35665 35666    1
 30088 35665 35667    1
 30089 35668 35669    1
 30090 35668 35670    1
 30091 35671 35672    1
 30092 35671 35673    1
 30093 35674 35675    1
 30094 35674 35676    1
 30095 35677 35678    1
 30096 35677 35679    1
 30097 35680 35681    1
 30098 35680 35682    1
 30099 35683 35684    1
 30100 35683 35685    1
 30101 35686 35687    1
 30102 35686 35688    1
 30103 35689 35690    1
 30104 35689 35691    1
 30105 35692 35693    1
 30106 35692 35694    1
 30107 35695 35696    1
 30108 35695 35697    1
 30109 35698 35699    1
 30110 35698 35700    1
 30111 35701 35702    1
 30112 35701 35703    1
 30113 35704 35705    1
 30114 35704 35706    1
 30115 35707 35708    1
 30116 35707 35709    1
 30117 35710 35711    1
 30118 35710 35712    1
 30119 35713 35714    1
 30120 35713 35715    1
 30121 35716 35717    1
 30122 35716 35718    1
 30123 35719 35720    1
 30124 35719 35721    1
 30125 35722 35723    1
 30126 35722 35724    1
 30127 35725 35726    1
 30128 35725 35727    1
 30129 35728 35729    1
 30130 35728 35730    1
 30131 35731 35732    1
 30132 35731 35733    1
 30133 35734 35735    1
 30134 35734 35736    1
 30135 35737 35738    1
 30136 35737 35739    1
 30137 35740 35741    1
 30138 35740 35742    1
 30139 35743 35744    1
 30140 35743 35745    1
 30141 35746 35747    1
 30142 35746 35748    1
 30143 35749 35750    1
 30144 35749 35751    1
 30145 35752 35753    1
 30146 35752 35754    1
 30147 35755 35756    1
 30148 35755 35757    1
 30149 35758 35759    1
 30150 35758 35760    1
 30151 35761 35762    1
 30152 35761 35763    1
 30153 35764 35765    1
 30154 35764 35766    1
 30155 35767 35768    1
 30156 35767 35769    1
 30157 35770 35771    1
 30158 35770 35772    1
 30159 35773 35774    1
 30160 35773 35775    1
 30161 35776 35777    1
 30162 35776 35778    1
 30163 35779 35780    1
 30164 35779 35781    1
 30165 35782 35783    1
 30166 35782 35784    1
 30167 35785 35786    1
 30168 35785 35787    1
 30169 35788 35789    1
 30170 35788 35790    1
 30171 35791 35792    1
 30172 35791 35793    1
 30173 35794 35795    1
 30174 35794 35796    1
 30175 35797 35798    1
 30176 35797 35799    1
 30177 35800 35801    1
 30178 35800 35802    1
 30179 35803 35804    1
 30180 35803 35805    1
 30181 35806 35807    1
 30182 35806 35808    1
 30183 35809 35810    1
 30184 35809 35811    1
 30185 35812 35813    1
 30186 35812 35814    1
 30187 35815 35816    1
 30188 35815 35817    1
 30189 35818 35819    1
 30190 35818 35820    1
 30191 35821 35822    1
 30192 35821 35823    1
 30193 35824 35825    1
 30194 35824 35826    1
 30195 35827 35828    1
 30196 35827 35829    1
 30197 35830 35831    1
 30198 35830 35832    1
 30199 35833 35834    1
 30200 35833 35835    1
 30201 35836 35837    1
 30202 35836 35838    1
 30203 35839 35840    1
 30204 35839 35841    1
 30205 35842 35843    1
 30206 35842 35844    1
 30207 35845 35846    1
 30208 35845 35847    1
 30209 35848 35849    1
 30210 35848 35850    1
 30211 35851 35852    1
 30212 35851 35853    1
 30213 35854 35855    1
 30214 35854 35856    1
 30215 35857 35858    1
 30216 35857 35859    1
 30217 35860 35861    1
 30218 35860 35862    1
 30219 35863 35864    1
 30220 35863 35865    1
 30221 35866 35867    1
 30222 35866 35868    1
 30223 35869 35870    1
 30224 35869 35871    1
 30225 35872 35873    1
 30226 35872 35874    1
 30227 35875 35876    1
 30228 35875 35877    1
 30229 35878 35879    1
 30230 35878 35880    1
 30231 35881 35882    1
 30232 35881 35883    1
 30233 35884 35885    1
 30234 35884 35886    1
 30235 35887 35888    1
 30236 35887 35889    1
 30237 35890 35891    1
 30238 35890 35892    1
 30239 35893 35894    1
 30240 35893 35895    1
 30241 35896 35897    1
 30242 35896 35898    1
 30243 35899 35900    1
 30244 35899 35901    1
 30245 35902 35903    1
 30246 35902 35904    1
 30247 35905 35906    1
 30248 35905 35907    1
 30249 35908 35909    1
 30250 35908 35910    1
 30251 35911 35912    1
 30252 35911 35913    1
 30253 35914 35915    1
 30254 35914 35916    1
 30255 35917 35918    1
 30256 35917 35919    1
 30257 35920 35921    1
 30258 35920 35922    1
 30259 35923 35924    1
 30260 35923 35925    1
 30261 35926 35927    1
 30262 35926 35928    1
 30263 35929 35930    1
 30264 35929 35931    1
 30265 35932 35933    1
 30266 35932 35934    1
 30267 35935 35936    1
 30268 35935 35937    1
 30269 35938 35939    1
 30270 35938 35940    1
 30271 35941 35942    1
 30272 35941 35943    1
 30273 35944 35945    1
 30274 35944 35946    1
 30275 35947 35948    1
 30276 35947 35949    1
 30277 35950 35951    1
 30278 35950 35952    1
 30279 35953 35954    1
 30280 35953 35955    1
 30281 35956 35957    1
 30282 35956 35958    1
 30283 35959 35960    1
 30284 35959 35961    1
 30285 35962 35963    1
 30286 35962 35964    1
 30287 35965 35966    1
 30288 35965 35967    1
 30289 35968 35969    1
 30290 35968 35970    1
 30291 35971 35972    1
 30292 35971 35973    1
 30293 35974 35975    1
 30294 35974 35976    1
 30295 35977 35978    1
 30296 35977 35979    1
 30297 35980 35981    1
 30298 35980 35982    1
 30299 35983 35984    1
 30300 35983 35985    1
 30301 35986 35987    1
 30302 35986 35988    1
 30303 35989 35990    1
 30304 35989 35991    1
 30305 35992 35993    1
 30306 35992 35994    1
 30307 35995 35996    1
 30308 35995 35997    1
 30309 35998 35999    1
 30310 35998 36000    1
 30311 36001 36002    1
 30312 36001 36003    1
 30313 36004 36005    1
 30314 36004 36006    1
 30315 36007 36008    1
 30316 36007 36009    1
 30317 36010 36011    1
 30318 36010 36012    1
 30319 36013 36014    1
 30320 36013 36015    1
 30321 36016 36017    1
 30322 36016 36018    1
 30323 36019 36020    1
 30324 36019 36021    1
 30325 36022 36023    1
 30326 36022 36024    1
 30327 36025 36026    1
 30328 36025 36027    1
 30329 36028 36029    1
 30330 36028 36030    1
 30331 36031 36032    1
 30332 36031 36033    1
 30333 36034 36035    1
 30334 36034 36036    1
 30335 36037 36038    1
 30336 36037 36039    1
 30337 36040 36041    1
 30338 36040 36042    1
 30339 36043 36044    1
 30340 36043 36045    1
 30341 36046 36047    1
 30342 36046 36048    1
 30343 36049 36050    1
 30344 36049 36051    1
 30345 36052 36053    1
 30346 36052 36054    1
 30347 36055 36056    1
 30348 36055 36057    1
 30349 36058 36059    1
 30350 36058 36060    1
 30351 36061 36062    1
 30352 36061 36063    1
 30353 36064 36065    1
 30354 36064 36066    1
 30355 36067 36068    1
 30356 36067 36069    1
 30357 36070 36071    1
 30358 36070 36072    1
 30359 36073 36074    1
 30360 36073 36075    1
 30361 36076 36077    1
 30362 36076 36078    1
 30363 36079 36080    1
 30364 36079 36081    1
 30365 36082 36083    1
 30366 36082 36084    1
 30367 36085 36086    1
 30368 36085 36087    1
 30369 36088 36089    1
 30370 36088 36090    1
 30371 36091 36092    1
 30372 36091 36093    1
 30373 36094 36095    1
 30374 36094 36096    1
 30375 36097 36098    1
 30376 36097 36099    1
 30377 36100 36101    1
 30378 36100 36102    1
 30379 36103 36104    1
 30380 36103 36105    1
 30381 36106 36107    1
 30382 36106 36108    1
 30383 36109 36110    1
 30384 36109 36111    1
 30385 36112 36113    1
 30386 36112 36114    1
 30387 36115 36116    1
 30388 36115 36117    1
 30389 36118 36119    1
 30390 36118 36120    1
 30391 36121 36122    1
 30392 36121 36123    1
 30393 36124 36125    1
 30394 36124 36126    1
 30395 36127 36128    1
 30396 36127 36129    1
 30397 36130 36131    1
 30398 36130 36132    1
 30399 36133 36134    1
 30400 36133 36135    1
 30401 36136 36137    1
 30402 36136 36138    1
 30403 36139 36140    1
 30404 36139 36141    1
 30405 36142 36143    1
 30406 36142 36144    1
 30407 36145 36146    1
 30408 36145 36147    1
 30409 36148 36149    1
 30410 36148 36150    1
 30411 36151 36152    1
 30412 36151 36153    1
 30413 36154 36155    1
 30414 36154 36156    1
 30415 36157 36158    1
 30416 36157 36159    1
 30417 36160 36161    1
 30418 36160 36162    1
 30419 36163 36164    1
 30420 36163 36165    1
 30421 36166 36167    1
 30422 36166 36168    1
 30423 36169 36170    1
 30424 36169 36171    1
 30425 36172 36173    1
 30426 36172 36174    1
 30427 36175 36176    1
 30428 36175 36177    1
 30429 36178 36179    1
 30430 36178 36180    1
 30431 36181 36182    1
 30432 36181 36183    1
 30433 36184 36185    1
 30434 36184 36186    1
 30435 36187 36188    1
 30436 36187 36189    1
 30437 36190 36191    1
 30438 36190 36192    1
 30439 36193 36194    1
 30440 36193 36195    1
 30441 36196 36197    1
 30442 36196 36198    1
 30443 36199 36200    1
 30444 36199 36201    1
 30445 36202 36203    1
 30446 36202 36204    1
 30447 36205 36206    1
 30448 36205 36207    1
 30449 36208 36209    1
 30450 36208 36210    1
 30451 36211 36212    1
 30452 36211 36213    1
 30453 36214 36215    1
 30454 36214 36216    1
 30455 36217 36218    1
 30456 36217 36219    1
 30457 36220 36221    1
 30458 36220 36222    1
 30459 36223 36224    1
 30460 36223 36225    1
 30461 36226 36227    1
 30462 36226 36228    1
 30463 36229 36230    1
 30464 36229 36231    1
 30465 36232 36233    1
 30466 36232 36234    1
 30467 36235 36236    1
 30468 36235 36237    1
 30469 36238 36239    1
 30470 36238 36240    1
 30471 36241 36242    1
 30472 36241 36243    1
 30473 36244 36245    1
 30474 36244 36246    1
 30475 36247 36248    1
 30476 36247 36249    1
 30477 36250 36251    1
 30478 36250 36252    1
 30479 36253 36254    1
 30480 36253 36255    1
 30481 36256 36257    1
 30482 36256 36258    1
 30483 36259 36260    1
 30484 36259 36261    1
 30485 36262 36263    1
 30486 36262 36264    1
 30487 36265 36266    1
 30488 36265 36267    1
 30489 36268 36269    1
 30490 36268 36270    1
 30491 36271 36272    1
 30492 36271 36273    1
 30493 36274 36275    1
 30494 36274 36276    1
 30495 36277 36278    1
 30496 36277 36279    1
 30497 36280 36281    1
 30498 36280 36282    1
 30499 36283 36284    1
 30500 36283 36285    1
 30501 36286 36287    1
 30502 36286 36288    1
 30503 36289 36290    1
 30504 36289 36291    1
 30505 36292 36293    1
 30506 36292 36294    1
 30507 36295 36296    1
 30508 36295 36297    1
 30509 36298 36299    1
 30510 36298 36300    1
 30511 36301 36302    1
 30512 36301 36303    1
 30513 36304 36305    1
 30514 36304 36306    1
 30515 36307 36308    1
 30516 36307 36309    1
 30517 36310 36311    1
 30518 36310 36312    1
 30519 36313 36314    1
 30520 36313 36315    1
 30521 36316 36317    1
 30522 36316 36318    1
 30523 36319 36320    1
 30524 36319 36321    1
 30525 36322 36323    1
 30526 36322 36324    1
 30527 36325 36326    1
 30528 36325 36327    1
 30529 36328 36329    1
 30530 36328 36330    1
 30531 36331 36332    1
 30532 36331 36333    1
 30533 36334 36335    1
 30534 36334 36336    1
 30535 36337 36338    1
 30536 36337 36339    1
 30537 36340 36341    1
 30538 36340 36342    1
 30539 36343 36344    1
 30540 36343 36345    1
 30541 36346 36347    1
 30542 36346 36348    1
 30543 36349 36350    1
 30544 36349 36351    1
 30545 36352 36353    1
 30546 36352 36354    1
 30547 36355 36356    1
 30548 36355 36357    1
 30549 36358 36359    1
 30550 36358 36360    1
 30551 36361 36362    1
 30552 36361 36363    1
 30553 36364 36365    1
 30554 36364 36366    1
 30555 36367 36368    1
 30556 36367 36369    1
 30557 36370 36371    1
 30558 36370 36372    1
 30559 36373 36374    1
 30560 36373 36375    1
 30561 36376 36377    1
 30562 36376 36378    1
 30563 36379 36380    1
 30564 36379 36381    1
 30565 36382 36383    1
 30566 36382 36384    1
 30567 36385 36386    1
 30568 36385 36387    1
 30569 36388 36389    1
 30570 36388 36390    1
 30571 36391 36392    1
 30572 36391 36393    1
 30573 36394 36395    1
 30574 36394 36396    1
 30575 36397 36398    1
 30576 36397 36399    1
 30577 36400 36401    1
 30578 36400 36402    1
 30579 36403 36404    1
 30580 36403 36405    1
 30581 36406 36407    1
 30582 36406 36408    1
 30583 36409 36410    1
 30584 36409 36411    1
 30585 36412 36413    1
 30586 36412 36414    1
 30587 36415 36416    1
 30588 36415 36417    1
 30589 36418 36419    1
 30590 36418 36420    1
 30591 36421 36422    1
 30592 36421 36423    1
 30593 36424 36425    1
 30594 36424 36426    1
 30595 36427 36428    1
 30596 36427 36429    1
 30597 36430 36431    1
 30598 36430 36432    1
 30599 36433 36434    1
 30600 36433 36435    1
 30601 36436 36437    1
 30602 36436 36438    1
 30603 36439 36440    1
 30604 36439 36441    1
 30605 36442 36443    1
 30606 36442 36444    1
 30607 36445 36446    1
 30608 36445 36447    1
 30609 36448 36449    1
 30610 36448 36450    1
 30611 36451 36452    1
 30612 36451 36453    1
 30613 36454 36455    1
 30614 36454 36456    1
 30615 36457 36458    1
 30616 36457 36459    1
 30617 36460 36461    1
 30618 36460 36462    1
 30619 36463 36464    1
 30620 36463 36465    1
 30621 36466 36467    1
 30622 36466 36468    1
 30623 36469 36470    1
 30624 36469 36471    1
 30625 36472 36473    1
 30626 36472 36474    1
 30627 36475 36476    1
 30628 36475 36477    1
 30629 36478 36479    1
 30630 36478 36480    1
 30631 36481 36482    1
 30632 36481 36483    1
 30633 36484 36485    1
 30634 36484 36486    1
 30635 36487 36488    1
 30636 36487 36489    1
 30637 36490 36491    1
 30638 36490 36492    1
 30639 36493 36494    1
 30640 36493 36495    1
 30641 36496 36497    1
 30642 36496 36498    1
 30643 36499 36500    1
 30644 36499 36501    1
 30645 36502 36503    1
 30646 36502 36504    1
 30647 36505 36506    1
 30648 36505 36507    1
 30649 36508 36509    1
 30650 36508 36510    1
 30651 36511 36512    1
 30652 36511 36513    1
 30653 36514 36515    1
 30654 36514 36516    1
 30655 36517 36518    1
 30656 36517 36519    1
 30657 36520 36521    1
 30658 36520 36522    1
 30659 36523 36524    1
 30660 36523 36525    1
 30661 36526 36527    1
 30662 36526 36528    1
 30663 36529 36530    1
 30664 36529 36531    1
 30665 36532 36533    1
 30666 36532 36534    1
 30667 36535 36536    1
 30668 36535 36537    1
 30669 36538 36539    1
 30670 36538 36540    1
 30671 36541 36542    1
 30672 36541 36543    1
 30673 36544 36545    1
 30674 36544 36546    1
 30675 36547 36548    1
 30676 36547 36549    1
 30677 36550 36551    1
 30678 36550 36552    1
 30679 36553 36554    1
 30680 36553 36555    1
 30681 36556 36557    1
 30682 36556 36558    1
 30683 36559 36560    1
 30684 36559 36561    1
 30685 36562 36563    1
 30686 36562 36564    1
 30687 36565 36566    1
 30688 36565 36567    1
 30689 36568 36569    1
 30690 36568 36570    1
 30691 36571 36572    1
 30692 36571 36573    1
 30693 36574 36575    1
 30694 36574 36576    1
 30695 36577 36578    1
 30696 36577 36579    1
 30697 36580 36581    1
 30698 36580 36582    1
 30699 36583 36584    1
 30700 36583 36585    1
 30701 36586 36587    1
 30702 36586 36588    1
 30703 36589 36590    1
 30704 36589 36591    1
 30705 36592 36593    1
 30706 36592 36594    1
 30707 36595 36596    1
 30708 36595 36597    1
 30709 36598 36599    1
 30710 36598 36600    1
 30711 36601 36602    1
 30712 36601 36603    1
 30713 36604 36605    1
 30714 36604 36606    1
 30715 36607 36608    1
 30716 36607 36609    1
 30717 36610 36611    1
 30718 36610 36612    1
 30719 36613 36614    1
 30720 36613 36615    1
 30721 36616 36617    1
 30722 36616 36618    1
 30723 36619 36620    1
 30724 36619 36621    1
 30725 36622 36623    1
 30726 36622 36624    1
 30727 36625 36626    1
 30728 36625 36627    1
 30729 36628 36629    1
 30730 36628 36630    1
 30731 36631 36632    1
 30732 36631 36633    1
 30733 36634 36635    1
 30734 36634 36636    1
 30735 36637 36638    1
 30736 36637 36639    1
 30737 36640 36641    1
 30738 36640 36642    1
 30739 36643 36644    1
 30740 36643 36645    1
 30741 36646 36647    1
 30742 36646 36648    1
 30743 36649 36650    1
 30744 36649 36651    1
 30745 36652 36653    1
 30746 36652 36654    1
 30747 36655 36656    1
 30748 36655 36657    1
 30749 36658 36659    1
 30750 36658 36660    1
 30751 36661 36662    1
 30752 36661 36663    1
 30753 36664 36665    1
 30754 36664 36666    1
 30755 36667 36668    1
 30756 36667 36669    1
 30757 36670 36671    1
 30758 36670 36672    1
 30759 36673 36674    1
 30760 36673 36675    1
 30761 36676 36677    1
 30762 36676 36678    1
 30763 36679 36680    1
 30764 36679 36681    1
 30765 36682 36683    1
 30766 36682 36684    1
 30767 36685 36686    1
 30768 36685 36687    1
 30769 36688 36689    1
 30770 36688 36690    1
 30771 36691 36692    1
 30772 36691 36693    1
 30773 36694 36695    1
 30774 36694 36696    1
 30775 36697 36698    1
 30776 36697 36699    1
 30777 36700 36701    1
 30778 36700 36702    1
 30779 36703 36704    1
 30780 36703 36705    1
 30781 36706 36707    1
 30782 36706 36708    1
 30783 36709 36710    1
 30784 36709 36711    1
 30785 36712 36713    1
 30786 36712 36714    1
 30787 36715 36716    1
 30788 36715 36717    1
 30789 36718 36719    1
 30790 36718 36720    1
 30791 36721 36722    1
 30792 36721 36723    1
 30793 36724 36725    1
 30794 36724 36726    1
 30795 36727 36728    1
 30796 36727 36729    1
 30797 36730 36731    1
 30798 36730 36732    1
 30799 36733 36734    1
 30800 36733 36735    1
 30801 36736 36737    1
 30802 36736 36738    1
 30803 36739 36740    1
 30804 36739 36741    1
 30805 36742 36743    1
 30806 36742 36744    1
 30807 36745 36746    1
 30808 36745 36747    1
 30809 36748 36749    1
 30810 36748 36750    1
 30811 36751 36752    1
 30812 36751 36753    1
 30813 36754 36755    1
 30814 36754 36756    1
 30815 36757 36758    1
 30816 36757 36759    1
 30817 36760 36761    1
 30818 36760 36762    1
 30819 36763 36764    1
 30820 36763 36765    1
 30821 36766 36767    1
 30822 36766 36768    1
 30823 36769 36770    1
 30824 36769 36771    1
 30825 36772 36773    1
 30826 36772 36774    1
 30827 36775 36776    1
 30828 36775 36777    1
 30829 36778 36779    1
 30830 36778 36780    1
 30831 36781 36782    1
 30832 36781 36783    1
 30833 36784 36785    1
 30834 36784 36786    1
 30835 36787 36788    1
 30836 36787 36789    1
 30837 36790 36791    1
 30838 36790 36792    1
 30839 36793 36794    1
 30840 36793 36795    1
 30841 36796 36797    1
 30842 36796 36798    1
 30843 36799 36800    1
 30844 36799 36801    1
 30845 36802 36803    1
 30846 36802 36804    1
 30847 36805 36806    1
 30848 36805 36807    1
 30849 36808 36809    1
 30850 36808 36810    1
 30851 36811 36812    1
 30852 36811 36813    1
 30853 36814 36815    1
 30854 36814 36816    1
 30855 36817 36818    1
 30856 36817 36819    1
 30857 36820 36821    1
 30858 36820 36822    1
 30859 36823 36824    1
 30860 36823 36825    1
 30861 36826 36827    1
 30862 36826 36828    1
 30863 36829 36830    1
 30864 36829 36831    1
 30865 36832 36833    1
 30866 36832 36834    1
 30867 36835 36836    1
 30868 36835 36837    1
 30869 36838 36839    1
 30870 36838 36840    1
 30871 36841 36842    1
 30872 36841 36843    1
 30873 36844 36845    1
 30874 36844 36846    1
 30875 36847 36848    1
 30876 36847 36849    1
 30877 36850 36851    1
 30878 36850 36852    1
 30879 36853 36854    1
 30880 36853 36855    1
 30881 36856 36857    1
 30882 36856 36858    1
 30883 36859 36860    1
 30884 36859 36861    1
 30885 36862 36863    1
 30886 36862 36864    1
 30887 36865 36866    1
 30888 36865 36867    1
 30889 36868 36869    1
 30890 36868 36870    1
 30891 36871 36872    1
 30892 36871 36873    1
 30893 36874 36875    1
 30894 36874 36876    1
 30895 36877 36878    1
 30896 36877 36879    1
 30897 36880 36881    1
 30898 36880 36882    1
 30899 36883 36884    1
 30900 36883 36885    1
 30901 36886 36887    1
 30902 36886 36888    1
 30903 36889 36890    1
 30904 36889 36891    1
 30905 36892 36893    1
 30906 36892 36894    1
 30907 36895 36896    1
 30908 36895 36897    1
 30909 36898 36899    1
 30910 36898 36900    1
 30911 36901 36902    1
 30912 36901 36903    1
 30913 36904 36905    1
 30914 36904 36906    1
 30915 36907 36908    1
 30916 36907 36909    1
 30917 36910 36911    1
 30918 36910 36912    1
 30919 36913 36914    1
 30920 36913 36915    1
 30921 36916 36917    1
 30922 36916 36918    1
 30923 36919 36920    1
 30924 36919 36921    1
 30925 36922 36923    1
 30926 36922 36924    1
 30927 36925 36926    1
 30928 36925 36927    1
 30929 36928 36929    1
 30930 36928 36930    1
 30931 36931 36932    1
 30932 36931 36933    1
 30933 36934 36935    1
 30934 36934 36936    1
 30935 36937 36938    1
 30936 36937 36939    1
 30937 36940 36941    1
 30938 36940 36942    1
 30939 36943 36944    1
 30940 36943 36945    1
 30941 36946 36947    1
 30942 36946 36948    1
 30943 36949 36950    1
 30944 36949 36951    1
 30945 36952 36953    1
 30946 36952 36954    1
 30947 36955 36956    1
 30948 36955 36957    1
 30949 36958 36959    1
 30950 36958 36960    1
 30951 36961 36962    1
 30952 36961 36963    1
 30953 36964 36965    1
 30954 36964 36966    1
 30955 36967 36968    1
 30956 36967 36969    1
 30957 36970 36971    1
 30958 36970 36972    1
 30959 36973 36974    1
 30960 36973 36975    1
 30961 36976 36977    1
 30962 36976 36978    1
 30963 36979 36980    1
 30964 36979 36981    1
 30965 36982 36983    1
 30966 36982 36984    1
 30967 36985 36986    1
 30968 36985 36987    1
 30969 36988 36989    1
 30970 36988 36990    1
 30971 36991 36992    1
 30972 36991 36993    1
 30973 36994 36995    1
 30974 36994 36996    1
 30975 36997 36998    1
 30976 36997 36999    1
 30977 37000 37001    1
 30978 37000 37002    1
 30979 37003 37004    1
 30980 37003 37005    1
 30981 37006 37007    1
 30982 37006 37008    1
 30983 37009 37010    1
 30984 37009 37011    1
 30985 37012 37013    1
 30986 37012 37014    1
 30987 37015 37016    1
 30988 37015 37017    1
 30989 37018 37019    1
 30990 37018 37020    1
 30991 37021 37022    1
 30992 37021 37023    1
 30993 37024 37025    1
 30994 37024 37026    1
 30995 37027 37028    1
 30996 37027 37029    1
 30997 37030 37031    1
 30998 37030 37032    1
 30999 37033 37034    1
 31000 37033 37035    1
 31001 37036 37037    1
 31002 37036 37038    1
 31003 37039 37040    1
 31004 37039 37041    1
 31005 37042 37043    1
 31006 37042 37044    1
 31007 37045 37046    1
 31008 37045 37047    1
 31009 37048 37049    1
 31010 37048 37050    1
 31011 37051 37052    1
 31012 37051 37053    1
 31013 37054 37055    1
 31014 37054 37056    1
 31015 37057 37058    1
 31016 37057 37059    1
 31017 37060 37061    1
 31018 37060 37062    1
 31019 37063 37064    1
 31020 37063 37065    1
 31021 37066 37067    1
 31022 37066 37068    1
 31023 37069 37070    1
 31024 37069 37071    1
 31025 37072 37073    1
 31026 37072 37074    1
 31027 37075 37076    1
 31028 37075 37077    1
 31029 37078 37079    1
 31030 37078 37080    1
 31031 37081 37082    1
 31032 37081 37083    1
 31033 37084 37085    1
 31034 37084 37086    1
 31035 37087 37088    1
 31036 37087 37089    1
 31037 37090 37091    1
 31038 37090 37092    1
 31039 37093 37094    1
 31040 37093 37095    1
 31041 37096 37097    1
 31042 37096 37098    1
 31043 37099 37100    1
 31044 37099 37101    1
 31045 37102 37103    1
 31046 37102 37104    1
 31047 37105 37106    1
 31048 37105 37107    1
 31049 37108 37109    1
 31050 37108 37110    1
 31051 37111 37112    1
 31052 37111 37113    1
 31053 37114 37115    1
 31054 37114 37116    1
 31055 37117 37118    1
 31056 37117 37119    1
 31057 37120 37121    1
 31058 37120 37122    1
 31059 37123 37124    1
 31060 37123 37125    1
 31061 37126 37127    1
 31062 37126 37128    1
 31063 37129 37130    1
 31064 37129 37131    1
 31065 37132 37133    1
 31066 37132 37134    1
 31067 37135 37136    1
 31068 37135 37137    1
 31069 37138 37139    1
 31070 37138 37140    1
 31071 37141 37142    1
 31072 37141 37143    1
 31073 37144 37145    1
 31074 37144 37146    1
 31075 37147 37148    1
 31076 37147 37149    1
 31077 37150 37151    1
 31078 37150 37152    1
 31079 37153 37154    1
 31080 37153 37155    1
 31081 37156 37157    1
 31082 37156 37158    1
 31083 37159 37160    1
 31084 37159 37161    1
 31085 37162 37163    1
 31086 37162 37164    1
 31087 37165 37166    1
 31088 37165 37167    1
 31089 37168 37169    1
 31090 37168 37170    1
 31091 37171 37172    1
 31092 37171 37173    1
 31093 37174 37175    1
 31094 37174 37176    1
 31095 37177 37178    1
 31096 37177 37179    1
 31097 37180 37181    1
 31098 37180 37182    1
 31099 37183 37184    1
 31100 37183 37185    1
 31101 37186 37187    1
 31102 37186 37188    1
 31103 37189 37190    1
 31104 37189 37191    1
 31105 37192 37193    1
 31106 37192 37194    1
 31107 37195 37196    1
 31108 37195 37197    1
 31109 37198 37199    1
 31110 37198 37200    1
 31111 37201 37202    1
 31112 37201 37203    1
 31113 37204 37205    1
 31114 37204 37206    1
 31115 37207 37208    1
 31116 37207 37209    1
 31117 37210 37211    1
 31118 37210 37212    1
 31119 37213 37214    1
 31120 37213 37215    1
 31121 37216 37217    1
 31122 37216 37218    1
 31123 37219 37220    1
 31124 37219 37221    1
 31125 37222 37223    1
 31126 37222 37224    1
 31127 37225 37226    1
 31128 37225 37227    1
 31129 37228 37229    1
 31130 37228 37230    1
 31131 37231 37232    1
 31132 37231 37233    1
 31133 37234 37235    1
 31134 37234 37236    1
 31135 37237 37238    1
 31136 37237 37239    1
 31137 37240 37241    1
 31138 37240 37242    1
 31139 37243 37244    1
 31140 37243 37245    1
 31141 37246 37247    1
 31142 37246 37248    1
 31143 37249 37250    1
 31144 37249 37251    1
 31145 37252 37253    1
 31146 37252 37254    1
 31147 37255 37256    1
 31148 37255 37257    1
 31149 37258 37259    1
 31150 37258 37260    1
 31151 37261 37262    1
 31152 37261 37263    1
 31153 37264 37265    1
 31154 37264 37266    1
 31155 37267 37268    1
 31156 37267 37269    1
 31157 37270 37271    1
 31158 37270 37272    1
 31159 37273 37274    1
 31160 37273 37275    1
 31161 37276 37277    1
 31162 37276 37278    1
 31163 37279 37280    1
 31164 37279 37281    1
 31165 37282 37283    1
 31166 37282 37284    1
 31167 37285 37286    1
 31168 37285 37287    1
 31169 37288 37289    1
 31170 37288 37290    1
 31171 37291 37292    1
 31172 37291 37293    1
 31173 37294 37295    1
 31174 37294 37296    1
 31175 37297 37298    1
 31176 37297 37299    1
 31177 37300 37301    1
 31178 37300 37302    1
 31179 37303 37304    1
 31180 37303 37305    1
 31181 37306 37307    1
 31182 37306 37308    1
 31183 37309 37310    1
 31184 37309 37311    1
 31185 37312 37313    1
 31186 37312 37314    1
 31187 37315 37316    1
 31188 37315 37317    1
 31189 37318 37319    1
 31190 37318 37320    1
 31191 37321 37322    1
 31192 37321 37323    1
 31193 37324 37325    1
 31194 37324 37326    1
 31195 37327 37328    1
 31196 37327 37329    1
 31197 37330 37331    1
 31198 37330 37332    1
 31199 37333 37334    1
 31200 37333 37335    1
 31201 37336 37337    1
 31202 37336 37338    1
 31203 37339 37340    1
 31204 37339 37341    1
 31205 37342 37343    1
 31206 37342 37344    1
 31207 37345 37346    1
 31208 37345 37347    1
 31209 37348 37349    1
 31210 37348 37350    1
 31211 37351 37352    1
 31212 37351 37353    1
 31213 37354 37355    1
 31214 37354 37356    1
 31215 37357 37358    1
 31216 37357 37359    1
 31217 37360 37361    1
 31218 37360 37362    1
 31219 37363 37364    1
 31220 37363 37365    1
 31221 37366 37367    1
 31222 37366 37368    1
 31223 37369 37370    1
 31224 37369 37371    1
 31225 37372 37373    1
 31226 37372 37374    1
 31227 37375 37376    1
 31228 37375 37377    1
 31229 37378 37379    1
 31230 37378 37380    1
 31231 37381 37382    1
 31232 37381 37383    1
 31233 37384 37385    1
 31234 37384 37386    1
 31235 37387 37388    1
 31236 37387 37389    1
 31237 37390 37391    1
 31238 37390 37392    1
 31239 37393 37394    1
 31240 37393 37395    1
 31241 37396 37397    1
 31242 37396 37398    1
 31243 37399 37400    1
 31244 37399 37401    1
 31245 37402 37403    1
 31246 37402 37404    1
 31247 37405 37406    1
 31248 37405 37407    1
 31249 37408 37409    1
 31250 37408 37410    1
 31251 37411 37412    1
 31252 37411 37413    1
 31253 37414 37415    1
 31254 37414 37416    1
 31255 37417 37418    1
 31256 37417 37419    1
 31257 37420 37421    1
 31258 37420 37422    1
 31259 37423 37424    1
 31260 37423 37425    1
 31261 37426 37427    1
 31262 37426 37428    1
 31263 37429 37430    1
 31264 37429 37431    1
 31265 37432 37433    1
 31266 37432 37434    1
 31267 37435 37436    1
 31268 37435 37437    1
 31269 37438 37439    1
 31270 37438 37440    1
 31271 37441 37442    1
 31272 37441 37443    1
 31273 37444 37445    1
 31274 37444 37446    1
 31275 37447 37448    1
 31276 37447 37449    1
 31277 37450 37451    1
 31278 37450 37452    1
 31279 37453 37454    1
 31280 37453 37455    1
 31281 37456 37457    1
 31282 37456 37458    1
 31283 37459 37460    1
 31284 37459 37461    1
 31285 37462 37463    1
 31286 37462 37464    1
 31287 37465 37466    1
 31288 37465 37467    1
 31289 37468 37469    1
 31290 37468 37470    1
 31291 37471 37472    1
 31292 37471 37473    1
 31293 37474 37475    1
 31294 37474 37476    1
 31295 37477 37478    1
 31296 37477 37479    1
 31297 37480 37481    1
 31298 37480 37482    1
 31299 37483 37484    1
 31300 37483 37485    1
 31301 37486 37487    1
 31302 37486 37488    1
 31303 37489 37490    1
 31304 37489 37491    1
 31305 37492 37493    1
 31306 37492 37494    1
 31307 37495 37496    1
 31308 37495 37497    1
 31309 37498 37499    1
 31310 37498 37500    1
 31311 37501 37502    1
 31312 37501 37503    1
 31313 37504 37505    1
 31314 37504 37506    1
 31315 37507 37508    1
 31316 37507 37509    1
 31317 37510 37511    1
 31318 37510 37512    1
 31319 37513 37514    1
 31320 37513 37515    1
 31321 37516 37517    1
 31322 37516 37518    1
 31323 37519 37520    1
 31324 37519 37521    1
 31325 37522 37523    1
 31326 37522 37524    1
 31327 37525 37526    1
 31328 37525 37527    1
 31329 37528 37529    1
 31330 37528 37530    1
 31331 37531 37532    1
 31332 37531 37533    1
 31333 37534 37535    1
 31334 37534 37536    1
 31335 37537 37538    1
 31336 37537 37539    1
 31337 37540 37541    1
 31338 37540 37542    1
 31339 37543 37544    1
 31340 37543 37545    1
 31341 37546 37547    1
 31342 37546 37548    1
 31343 37549 37550    1
 31344 37549 37551    1
 31345 37552 37553    1
 31346 37552 37554    1
 31347 37555 37556    1
 31348 37555 37557    1
 31349 37558 37559    1
 31350 37558 37560    1
 31351 37561 37562    1
 31352 37561 37563    1
 31353 37564 37565    1
 31354 37564 37566    1
 31355 37567 37568    1
 31356 37567 37569    1
 31357 37570 37571    1
 31358 37570 37572    1
 31359 37573 37574    1
 31360 37573 37575    1
 31361 37576 37577    1
 31362 37576 37578    1
 31363 37579 37580    1
 31364 37579 37581    1
 31365 37582 37583    1
 31366 37582 37584    1
 31367 37585 37586    1
 31368 37585 37587    1
 31369 37588 37589    1
 31370 37588 37590    1
 31371 37591 37592    1
 31372 37591 37593    1
 31373 37594 37595    1
 31374 37594 37596    1
 31375 37597 37598    1
 31376 37597 37599    1
 31377 37600 37601    1
 31378 37600 37602    1
 31379 37603 37604    1
 31380 37603 37605    1
 31381 37606 37607    1
 31382 37606 37608    1
 31383 37609 37610    1
 31384 37609 37611    1
 31385 37612 37613    1
 31386 37612 37614    1
 31387 37615 37616    1
 31388 37615 37617    1
 31389 37618 37619    1
 31390 37618 37620    1
 31391 37621 37622    1
 31392 37621 37623    1
 31393 37624 37625    1
 31394 37624 37626    1
 31395 37627 37628    1
 31396 37627 37629    1
 31397 37630 37631    1
 31398 37630 37632    1
 31399 37633 37634    1
 31400 37633 37635    1
 31401 37636 37637    1
 31402 37636 37638    1
 31403 37639 37640    1
 31404 37639 37641    1
 31405 37642 37643    1
 31406 37642 37644    1
 31407 37645 37646    1
 31408 37645 37647    1
 31409 37648 37649    1
 31410 37648 37650    1
 31411 37651 37652    1
 31412 37651 37653    1
 31413 37654 37655    1
 31414 37654 37656    1
 31415 37657 37658    1
 31416 37657 37659    1
 31417 37660 37661    1
 31418 37660 37662    1
 31419 37663 37664    1
 31420 37663 37665    1
 31421 37666 37667    1
 31422 37666 37668    1
 31423 37669 37670    1
 31424 37669 37671    1
 31425 37672 37673    1
 31426 37672 37674    1
 31427 37675 37676    1
 31428 37675 37677    1
 31429 37678 37679    1
 31430 37678 37680    1
 31431 37681 37682    1
 31432 37681 37683    1
 31433 37684 37685    1
 31434 37684 37686    1
 31435 37687 37688    1
 31436 37687 37689    1
 31437 37690 37691    1
 31438 37690 37692    1
 31439 37693 37694    1
 31440 37693 37695    1
 31441 37696 37697    1
 31442 37696 37698    1
 31443 37699 37700    1
 31444 37699 37701    1
 31445 37702 37703    1
 31446 37702 37704    1
 31447 37705 37706    1
 31448 37705 37707    1
 31449 37708 37709    1
 31450 37708 37710    1
 31451 37711 37712    1
 31452 37711 37713    1
 31453 37714 37715    1
 31454 37714 37716    1
 31455 37717 37718    1
 31456 37717 37719    1
 31457 37720 37721    1
 31458 37720 37722    1
 31459 37723 37724    1
 31460 37723 37725    1
 31461 37726 37727    1
 31462 37726 37728    1
 31463 37729 37730    1
 31464 37729 37731    1
 31465 37732 37733    1
 31466 37732 37734    1
 31467 37735 37736    1
 31468 37735 37737    1
 31469 37738 37739    1
 31470 37738 37740    1
 31471 37741 37742    1
 31472 37741 37743    1
 31473 37744 37745    1
 31474 37744 37746    1
 31475 37747 37748    1
 31476 37747 37749    1
 31477 37750 37751    1
 31478 37750 37752    1
 31479 37753 37754    1
 31480 37753 37755    1
 31481 37756 37757    1
 31482 37756 37758    1
 31483 37759 37760    1
 31484 37759 37761    1
 31485 37762 37763    1
 31486 37762 37764    1
 31487 37765 37766    1
 31488 37765 37767    1
 31489 37768 37769    1
 31490 37768 37770    1
 31491 37771 37772    1
 31492 37771 37773    1
 31493 37774 37775    1
 31494 37774 37776    1
 31495 37777 37778    1
 31496 37777 37779    1
 31497 37780 37781    1
 31498 37780 37782    1
 31499 37783 37784    1
 31500 37783 37785    1
 31501 37786 37787    1
 31502 37786 37788    1
 31503 37789 37790    1
 31504 37789 37791    1
 31505 37792 37793    1
 31506 37792 37794    1
 31507 37795 37796    1
 31508 37795 37797    1
 31509 37798 37799    1
 31510 37798 37800    1
 31511 37801 37802    1
 31512 37801 37803    1
 31513 37804 37805    1
 31514 37804 37806    1
 31515 37807 37808    1
 31516 37807 37809    1
 31517 37810 37811    1
 31518 37810 37812    1
 31519 37813 37814    1
 31520 37813 37815    1
 31521 37816 37817    1
 31522 37816 37818    1
 31523 37819 37820    1
 31524 37819 37821    1
 31525 37822 37823    1
 31526 37822 37824    1
 31527 37825 37826    1
 31528 37825 37827    1
 31529 37828 37829    1
 31530 37828 37830    1
 31531 37831 37832    1
 31532 37831 37833    1
 31533 37834 37835    1
 31534 37834 37836    1
 31535 37837 37838    1
 31536 37837 37839    1
 31537 37840 37841    1
 31538 37840 37842    1
 31539 37843 37844    1
 31540 37843 37845    1
 31541 37846 37847    1
 31542 37846 37848    1
 31543 37849 37850    1
 31544 37849 37851    1
 31545 37852 37853    1
 31546 37852 37854    1
 31547 37855 37856    1
 31548 37855 37857    1
 31549 37858 37859    1
 31550 37858 37860    1
 31551 37861 37862    1
 31552 37861 37863    1
 31553 37864 37865    1
 31554 37864 37866    1
 31555 37867 37868    1
 31556 37867 37869    1
 31557 37870 37871    1
 31558 37870 37872    1
 31559 37873 37874    1
 31560 37873 37875    1
 31561 37876 37877    1
 31562 37876 37878    1
 31563 37879 37880    1
 31564 37879 37881    1
 31565 37882 37883    1
 31566 37882 37884    1
 31567 37885 37886    1
 31568 37885 37887    1
 31569 37888 37889    1
 31570 37888 37890    1
 31571 37891 37892    1
 31572 37891 37893    1
 31573 37894 37895    1
 31574 37894 37896    1
 31575 37897 37898    1
 31576 37897 37899    1
 31577 37900 37901    1
 31578 37900 37902    1
 31579 37903 37904    1
 31580 37903 37905    1
 31581 37906 37907    1
 31582 37906 37908    1
 31583 37909 37910    1
 31584 37909 37911    1
 31585 37912 37913    1
 31586 37912 37914    1
 31587 37915 37916    1
 31588 37915 37917    1
 31589 37918 37919    1
 31590 37918 37920    1
 31591 37921 37922    1
 31592 37921 37923    1
 31593 37924 37925    1
 31594 37924 37926    1
 31595 37927 37928    1
 31596 37927 37929    1
 31597 37930 37931    1
 31598 37930 37932    1
 31599 37933 37934    1
 31600 37933 37935    1
 31601 37936 37937    1
 31602 37936 37938    1
 31603 37939 37940    1
 31604 37939 37941    1
 31605 37942 37943    1
 31606 37942 37944    1
 31607 37945 37946    1
 31608 37945 37947    1
 31609 37948 37949    1
 31610 37948 37950    1
 31611 37951 37952    1
 31612 37951 37953    1
 31613 37954 37955    1
 31614 37954 37956    1
 31615 37957 37958    1
 31616 37957 37959    1
 31617 37960 37961    1
 31618 37960 37962    1
 31619 37963 37964    1
 31620 37963 37965    1
 31621 37966 37967    1
 31622 37966 37968    1
 31623 37969 37970    1
 31624 37969 37971    1
 31625 37972 37973    1
 31626 37972 37974    1
 31627 37975 37976    1
 31628 37975 37977    1
 31629 37978 37979    1
 31630 37978 37980    1
 31631 37981 37982    1
 31632 37981 37983    1
 31633 37984 37985    1
 31634 37984 37986    1
 31635 37987 37988    1
 31636 37987 37989    1
 31637 37990 37991    1
 31638 37990 37992    1
 31639 37993 37994    1
 31640 37993 37995    1
 31641 37996 37997    1
 31642 37996 37998    1
 31643 37999 38000    1
 31644 37999 38001    1
 31645 38002 38003    1
 31646 38002 38004    1
 31647 38005 38006    1
 31648 38005 38007    1
 31649 38008 38009    1
 31650 38008 38010    1
 31651 38011 38012    1
 31652 38011 38013    1
 31653 38014 38015    1
 31654 38014 38016    1
 31655 38017 38018    1
 31656 38017 38019    1
 31657 38020 38021    1
 31658 38020 38022    1
 31659 38023 38024    1
 31660 38023 38025    1
 31661 38026 38027    1
 31662 38026 38028    1
 31663 38029 38030    1
 31664 38029 38031    1
 31665 38032 38033    1
 31666 38032 38034    1
 31667 38035 38036    1
 31668 38035 38037    1
 31669 38038 38039    1
 31670 38038 38040    1
 31671 38041 38042    1
 31672 38041 38043    1
 31673 38044 38045    1
 31674 38044 38046    1
 31675 38047 38048    1
 31676 38047 38049    1
 31677 38050 38051    1
 31678 38050 38052    1
 31679 38053 38054    1
 31680 38053 38055    1
 31681 38056 38057    1
 31682 38056 38058    1
 31683 38059 38060    1
 31684 38059 38061    1
 31685 38062 38063    1
 31686 38062 38064    1
 31687 38065 38066    1
 31688 38065 38067    1
 31689 38068 38069    1
 31690 38068 38070    1
 31691 38071 38072    1
 31692 38071 38073    1
 31693 38074 38075    1
 31694 38074 38076    1
 31695 38077 38078    1
 31696 38077 38079    1
 31697 38080 38081    1
 31698 38080 38082    1
 31699 38083 38084    1
 31700 38083 38085    1
 31701 38086 38087    1
 31702 38086 38088    1
 31703 38089 38090    1
 31704 38089 38091    1
 31705 38092 38093    1
 31706 38092 38094    1
 31707 38095 38096    1
 31708 38095 38097    1
 31709 38098 38099    1
 31710 38098 38100    1
 31711 38101 38102    1
 31712 38101 38103    1
 31713 38104 38105    1
 31714 38104 38106    1
 31715 38107 38108    1
 31716 38107 38109    1
 31717 38110 38111    1
 31718 38110 38112    1
 31719 38113 38114    1
 31720 38113 38115    1
 31721 38116 38117    1
 31722 38116 38118    1
 31723 38119 38120    1
 31724 38119 38121    1
 31725 38122 38123    1
 31726 38122 38124    1
 31727 38125 38126    1
 31728 38125 38127    1
 31729 38128 38129    1
 31730 38128 38130    1
 31731 38131 38132    1
 31732 38131 38133    1
 31733 38134 38135    1
 31734 38134 38136    1
 31735 38137 38138    1
 31736 38137 38139    1
 31737 38140 38141    1
 31738 38140 38142    1
 31739 38143 38144    1
 31740 38143 38145    1
 31741 38146 38147    1
 31742 38146 38148    1
 31743 38149 38150    1
 31744 38149 38151    1
 31745 38152 38153    1
 31746 38152 38154    1
 31747 38155 38156    1
 31748 38155 38157    1
 31749 38158 38159    1
 31750 38158 38160    1
 31751 38161 38162    1
 31752 38161 38163    1
 31753 38164 38165    1
 31754 38164 38166    1
 31755 38167 38168    1
 31756 38167 38169    1
 31757 38170 38171    1
 31758 38170 38172    1
 31759 38173 38174    1
 31760 38173 38175    1
 31761 38176 38177    1
 31762 38176 38178    1
 31763 38179 38180    1
 31764 38179 38181    1
 31765 38182 38183    1
 31766 38182 38184    1
 31767 38185 38186    1
 31768 38185 38187    1
 31769 38188 38189    1
 31770 38188 38190    1
 31771 38191 38192    1
 31772 38191 38193    1
 31773 38194 38195    1
 31774 38194 38196    1
 31775 38197 38198    1
 31776 38197 38199    1
 31777 38200 38201    1
 31778 38200 38202    1
 31779 38203 38204    1
 31780 38203 38205    1
 31781 38206 38207    1
 31782 38206 38208    1
 31783 38209 38210    1
 31784 38209 38211    1
 31785 38212 38213    1
 31786 38212 38214    1
 31787 38215 38216    1
 31788 38215 38217    1
 31789 38218 38219    1
 31790 38218 38220    1
 31791 38221 38222    1
 31792 38221 38223    1
 31793 38224 38225    1
 31794 38224 38226    1
 31795 38227 38228    1
 31796 38227 38229    1
 31797 38230 38231    1
 31798 38230 38232    1
 31799 38233 38234    1
 31800 38233 38235    1
 31801 38236 38237    1
 31802 38236 38238    1
 31803 38239 38240    1
 31804 38239 38241    1
 31805 38242 38243    1
 31806 38242 38244    1
 31807 38245 38246    1
 31808 38245 38247    1
 31809 38248 38249    1
 31810 38248 38250    1
 31811 38251 38252    1
 31812 38251 38253    1
 31813 38254 38255    1
 31814 38254 38256    1
 31815 38257 38258    1
 31816 38257 38259    1
 31817 38260 38261    1
 31818 38260 38262    1
 31819 38263 38264    1
 31820 38263 38265    1
 31821 38266 38267    1
 31822 38266 38268    1
 31823 38269 38270    1
 31824 38269 38271    1
 31825 38272 38273    1
 31826 38272 38274    1
 31827 38275 38276    1
 31828 38275 38277    1
 31829 38278 38279    1
 31830 38278 38280    1
 31831 38281 38282    1
 31832 38281 38283    1
 31833 38284 38285    1
 31834 38284 38286    1
 31835 38287 38288    1
 31836 38287 38289    1
 31837 38290 38291    1
 31838 38290 38292    1
 31839 38293 38294    1
 31840 38293 38295    1
 31841 38296 38297    1
 31842 38296 38298    1
 31843 38299 38300    1
 31844 38299 38301    1
 31845 38302 38303    1
 31846 38302 38304    1
 31847 38305 38306    1
 31848 38305 38307    1
 31849 38308 38309    1
 31850 38308 38310    1
 31851 38311 38312    1
 31852 38311 38313    1
 31853 38314 38315    1
 31854 38314 38316    1
 31855 38317 38318    1
 31856 38317 38319    1
 31857 38320 38321    1
 31858 38320 38322    1
 31859 38323 38324    1
 31860 38323 38325    1
 31861 38326 38327    1
 31862 38326 38328    1
 31863 38329 38330    1
 31864 38329 38331    1
 31865 38332 38333    1
 31866 38332 38334    1
 31867 38335 38336    1
 31868 38335 38337    1
 31869 38338 38339    1
 31870 38338 38340    1
 31871 38341 38342    1
 31872 38341 38343    1
 31873 38344 38345    1
 31874 38344 38346    1
 31875 38347 38348    1
 31876 38347 38349    1
 31877 38350 38351    1
 31878 38350 38352    1
 31879 38353 38354    1
 31880 38353 38355    1
 31881 38356 38357    1
 31882 38356 38358    1
 31883 38359 38360    1
 31884 38359 38361    1
 31885 38362 38363    1
 31886 38362 38364    1
 31887 38365 38366    1
 31888 38365 38367    1
 31889 38368 38369    1
 31890 38368 38370    1
 31891 38371 38372    1
 31892 38371 38373    1
 31893 38374 38375    1
 31894 38374 38376    1
 31895 38377 38378    1
 31896 38377 38379    1
 31897 38380 38381    1
 31898 38380 38382    1
 31899 38383 38384    1
 31900 38383 38385    1
 31901 38386 38387    1
 31902 38386 38388    1
 31903 38389 38390    1
 31904 38389 38391    1
 31905 38392 38393    1
 31906 38392 38394    1
 31907 38395 38396    1
 31908 38395 38397    1
 31909 38398 38399    1
 31910 38398 38400    1
 31911 38401 38402    1
 31912 38401 38403    1
 31913 38404 38405    1
 31914 38404 38406    1
 31915 38407 38408    1
 31916 38407 38409    1
 31917 38410 38411    1
 31918 38410 38412    1
 31919 38413 38414    1
 31920 38413 38415    1
 31921 38416 38417    1
 31922 38416 38418    1
 31923 38419 38420    1
 31924 38419 38421    1
 31925 38422 38423    1
 31926 38422 38424    1
 31927 38425 38426    1
 31928 38425 38427    1
 31929 38428 38429    1
 31930 38428 38430    1
 31931 38431 38432    1
 31932 38431 38433    1
 31933 38434 38435    1
 31934 38434 38436    1
 31935 38437 38438    1
 31936 38437 38439    1
 31937 38440 38441    1
 31938 38440 38442    1
 31939 38443 38444    1
 31940 38443 38445    1
 31941 38446 38447    1
 31942 38446 38448    1
 31943 38449 38450    1
 31944 38449 38451    1
 31945 38452 38453    1
 31946 38452 38454    1
 31947 38455 38456    1
 31948 38455 38457    1
 31949 38458 38459    1
 31950 38458 38460    1
 31951 38461 38462    1
 31952 38461 38463    1
 31953 38464 38465    1
 31954 38464 38466    1
 31955 38467 38468    1
 31956 38467 38469    1
 31957 38470 38471    1
 31958 38470 38472    1
 31959 38473 38474    1
 31960 38473 38475    1
 31961 38476 38477    1
 31962 38476 38478    1
 31963 38479 38480    1
 31964 38479 38481    1
 31965 38482 38483    1
 31966 38482 38484    1
 31967 38485 38486    1
 31968 38485 38487    1
 31969 38488 38489    1
 31970 38488 38490    1
 31971 38491 38492    1
 31972 38491 38493    1
 31973 38494 38495    1
 31974 38494 38496    1
 31975 38497 38498    1
 31976 38497 38499    1
 31977 38500 38501    1
 31978 38500 38502    1
 31979 38503 38504    1
 31980 38503 38505    1
 31981 38506 38507    1
 31982 38506 38508    1
 31983 38509 38510    1
 31984 38509 38511    1
 31985 38512 38513    1
 31986 38512 38514    1
 31987 38515 38516    1
 31988 38515 38517    1
 31989 38518 38519    1
 31990 38518 38520    1
 31991 38521 38522    1
 31992 38521 38523    1
 31993 38524 38525    1
 31994 38524 38526    1
 31995 38527 38528    1
 31996 38527 38529    1
 31997 38530 38531    1
 31998 38530 38532    1
 31999 38533 38534    1
 32000 38533 38535    1
 32001 38536 38537    1
 32002 38536 38538    1
 32003 38539 38540    1
 32004 38539 38541    1
 32005 38542 38543    1
 32006 38542 38544    1
 32007 38545 38546    1
 32008 38545 38547    1
 32009 38548 38549    1
 32010 38548 38550    1
 32011 38551 38552    1
 32012 38551 38553    1
 32013 38554 38555    1
 32014 38554 38556    1
 32015 38557 38558    1
 32016 38557 38559    1
 32017 38560 38561    1
 32018 38560 38562    1
 32019 38563 38564    1
 32020 38563 38565    1
 32021 38566 38567    1
 32022 38566 38568    1
 32023 38569 38570    1
 32024 38569 38571    1
 32025 38572 38573    1
 32026 38572 38574    1
 32027 38575 38576    1
 32028 38575 38577    1
 32029 38578 38579    1
 32030 38578 38580    1
 32031 38581 38582    1
 32032 38581 38583    1
 32033 38584 38585    1
 32034 38584 38586    1
 32035 38587 38588    1
 32036 38587 38589    1
 32037 38590 38591    1
 32038 38590 38592    1
 32039 38593 38594    1
 32040 38593 38595    1
 32041 38596 38597    1
 32042 38596 38598    1
 32043 38599 38600    1
 32044 38599 38601    1
 32045 38602 38603    1
 32046 38602 38604    1
 32047 38605 38606    1
 32048 38605 38607    1
 32049 38608 38609    1
 32050 38608 38610    1
 32051 38611 38612    1
 32052 38611 38613    1
 32053 38614 38615    1
 32054 38614 38616    1
 32055 38617 38618    1
 32056 38617 38619    1
 32057 38620 38621    1
 32058 38620 38622    1
 32059 38623 38624    1
 32060 38623 38625    1
 32061 38626 38627    1
 32062 38626 38628    1
 32063 38629 38630    1
 32064 38629 38631    1
 32065 38632 38633    1
 32066 38632 38634    1
 32067 38635 38636    1
 32068 38635 38637    1
 32069 38638 38639    1
 32070 38638 38640    1
 32071 38641 38642    1
 32072 38641 38643    1
 32073 38644 38645    1
 32074 38644 38646    1
 32075 38647 38648    1
 32076 38647 38649    1
 32077 38650 38651    1
 32078 38650 38652    1
 32079 38653 38654    1
 32080 38653 38655    1
 32081 38656 38657    1
 32082 38656 38658    1
 32083 38659 38660    1
 32084 38659 38661    1
 32085 38662 38663    1
 32086 38662 38664    1
 32087 38665 38666    1
 32088 38665 38667    1
 32089 38668 38669    1
 32090 38668 38670    1
 32091 38671 38672    1
 32092 38671 38673    1
 32093 38674 38675    1
 32094 38674 38676    1
 32095 38677 38678    1
 32096 38677 38679    1
 32097 38680 38681    1
 32098 38680 38682    1
 32099 38683 38684    1
 32100 38683 38685    1
 32101 38686 38687    1
 32102 38686 38688    1
 32103 38689 38690    1
 32104 38689 38691    1
 32105 38692 38693    1
 32106 38692 38694    1
 32107 38695 38696    1
 32108 38695 38697    1
 32109 38698 38699    1
 32110 38698 38700    1
 32111 38701 38702    1
 32112 38701 38703    1
 32113 38704 38705    1
 32114 38704 38706    1
 32115 38707 38708    1
 32116 38707 38709    1
 32117 38710 38711    1
 32118 38710 38712    1
 32119 38713 38714    1
 32120 38713 38715    1
 32121 38716 38717    1
 32122 38716 38718    1
 32123 38719 38720    1
 32124 38719 38721    1
 32125 38722 38723    1
 32126 38722 38724    1
 32127 38725 38726    1
 32128 38725 38727    1
 32129 38728 38729    1
 32130 38728 38730    1
 32131 38731 38732    1
 32132 38731 38733    1
 32133 38734 38735    1
 32134 38734 38736    1
 32135 38737 38738    1
 32136 38737 38739    1
 32137 38740 38741    1
 32138 38740 38742    1
 32139 38743 38744    1
 32140 38743 38745    1
 32141 38746 38747    1
 32142 38746 38748    1
 32143 38749 38750    1
 32144 38749 38751    1
 32145 38752 38753    1
 32146 38752 38754    1
 32147 38755 38756    1
 32148 38755 38757    1
 32149 38758 38759    1
 32150 38758 38760    1
 32151 38761 38762    1
 32152 38761 38763    1
 32153 38764 38765    1
 32154 38764 38766    1
 32155 38767 38768    1
 32156 38767 38769    1
 32157 38770 38771    1
 32158 38770 38772    1
 32159 38773 38774    1
 32160 38773 38775    1
 32161 38776 38777    1
 32162 38776 38778    1
 32163 38779 38780    1
 32164 38779 38781    1
 32165 38782 38783    1
 32166 38782 38784    1
 32167 38785 38786    1
 32168 38785 38787    1
 32169 38788 38789    1
 32170 38788 38790    1
 32171 38791 38792    1
 32172 38791 38793    1
 32173 38794 38795    1
 32174 38794 38796    1
 32175 38797 38798    1
 32176 38797 38799    1
 32177 38800 38801    1
 32178 38800 38802    1
 32179 38803 38804    1
 32180 38803 38805    1
 32181 38806 38807    1
 32182 38806 38808    1
 32183 38809 38810    1
 32184 38809 38811    1
 32185 38812 38813    1
 32186 38812 38814    1
 32187 38815 38816    1
 32188 38815 38817    1
 32189 38818 38819    1
 32190 38818 38820    1
 32191 38821 38822    1
 32192 38821 38823    1
 32193 38824 38825    1
 32194 38824 38826    1
 32195 38827 38828    1
 32196 38827 38829    1
 32197 38830 38831    1
 32198 38830 38832    1
 32199 38833 38834    1
 32200 38833 38835    1
 32201 38836 38837    1
 32202 38836 38838    1
 32203 38839 38840    1
 32204 38839 38841    1
 32205 38842 38843    1
 32206 38842 38844    1
 32207 38845 38846    1
 32208 38845 38847    1
 32209 38848 38849    1
 32210 38848 38850    1
 32211 38851 38852    1
 32212 38851 38853    1
 32213 38854 38855    1
 32214 38854 38856    1
 32215 38857 38858    1
 32216 38857 38859    1
 32217 38860 38861    1
 32218 38860 38862    1
 32219 38863 38864    1
 32220 38863 38865    1
 32221 38866 38867    1
 32222 38866 38868    1
 32223 38869 38870    1
 32224 38869 38871    1
 32225 38872 38873    1
 32226 38872 38874    1
 32227 38875 38876    1
 32228 38875 38877    1
 32229 38878 38879    1
 32230 38878 38880    1
 32231 38881 38882    1
 32232 38881 38883    1
 32233 38884 38885    1
 32234 38884 38886    1
 32235 38887 38888    1
 32236 38887 38889    1
 32237 38890 38891    1
 32238 38890 38892    1
 32239 38893 38894    1
 32240 38893 38895    1
 32241 38896 38897    1
 32242 38896 38898    1
 32243 38899 38900    1
 32244 38899 38901    1
 32245 38902 38903    1
 32246 38902 38904    1
 32247 38905 38906    1
 32248 38905 38907    1
 32249 38908 38909    1
 32250 38908 38910    1
 32251 38911 38912    1
 32252 38911 38913    1
 32253 38914 38915    1
 32254 38914 38916    1
 32255 38917 38918    1
 32256 38917 38919    1
 32257 38920 38921    1
 32258 38920 38922    1
 32259 38923 38924    1
 32260 38923 38925    1
 32261 38926 38927    1
 32262 38926 38928    1
 32263 38929 38930    1
 32264 38929 38931    1
 32265 38932 38933    1
 32266 38932 38934    1
 32267 38935 38936    1
 32268 38935 38937    1
 32269 38938 38939    1
 32270 38938 38940    1
 32271 38941 38942    1
 32272 38941 38943    1
 32273 38944 38945    1
 32274 38944 38946    1
 32275 38947 38948    1
 32276 38947 38949    1
 32277 38950 38951    1
 32278 38950 38952    1
 32279 38953 38954    1
 32280 38953 38955    1
 32281 38956 38957    1
 32282 38956 38958    1
 32283 38959 38960    1
 32284 38959 38961    1
 32285 38962 38963    1
 32286 38962 38964    1
 32287 38965 38966    1
 32288 38965 38967    1
 32289 38968 38969    1
 32290 38968 38970    1
 32291 38971 38972    1
 32292 38971 38973    1
 32293 38974 38975    1
 32294 38974 38976    1
 32295 38977 38978    1
 32296 38977 38979    1
 32297 38980 38981    1
 32298 38980 38982    1
 32299 38983 38984    1
 32300 38983 38985    1
 32301 38986 38987    1
 32302 38986 38988    1
 32303 38989 38990    1
 32304 38989 38991    1
 32305 38992 38993    1
 32306 38992 38994    1
 32307 38995 38996    1
 32308 38995 38997    1
 32309 38998 38999    1
 32310 38998 39000    1
 32311 39001 39002    1
 32312 39001 39003    1
 32313 39004 39005    1
 32314 39004 39006    1
 32315 39007 39008    1
 32316 39007 39009    1
 32317 39010 39011    1
 32318 39010 39012    1
 32319 39013 39014    1
 32320 39013 39015    1
 32321 39016 39017    1
 32322 39016 39018    1
 32323 39019 39020    1
 32324 39019 39021    1
 32325 39022 39023    1
 32326 39022 39024    1
 32327 39025 39026    1
 32328 39025 39027    1
 32329 39028 39029    1
 32330 39028 39030    1
 32331 39031 39032    1
 32332 39031 39033    1
 32333 39034 39035    1
 32334 39034 39036    1
 32335 39037 39038    1
 32336 39037 39039    1
 32337 39040 39041    1
 32338 39040 39042    1
 32339 39043 39044    1
 32340 39043 39045    1
 32341 39046 39047    1
 32342 39046 39048    1
 32343 39049 39050    1
 32344 39049 39051    1
 32345 39052 39053    1
 32346 39052 39054    1
 32347 39055 39056    1
 32348 39055 39057    1
 32349 39058 39059    1
 32350 39058 39060    1
 32351 39061 39062    1
 32352 39061 39063    1
 32353 39064 39065    1
 32354 39064 39066    1
 32355 39067 39068    1
 32356 39067 39069    1
 32357 39070 39071    1
 32358 39070 39072    1
 32359 39073 39074    1
 32360 39073 39075    1
 32361 39076 39077    1
 32362 39076 39078    1
 32363 39079 39080    1
 32364 39079 39081    1
 32365 39082 39083    1
 32366 39082 39084    1
 32367 39085 39086    1
 32368 39085 39087    1
 32369 39088 39089    1
 32370 39088 39090    1
 32371 39091 39092    1
 32372 39091 39093    1
 32373 39094 39095    1
 32374 39094 39096    1
 32375 39097 39098    1
 32376 39097 39099    1
 32377 39100 39101    1
 32378 39100 39102    1
 32379 39103 39104    1
 32380 39103 39105    1
 32381 39106 39107    1
 32382 39106 39108    1
 32383 39109 39110    1
 32384 39109 39111    1
 32385 39112 39113    1
 32386 39112 39114    1
 32387 39115 39116    1
 32388 39115 39117    1
 32389 39118 39119    1
 32390 39118 39120    1
 32391 39121 39122    1
 32392 39121 39123    1
 32393 39124 39125    1
 32394 39124 39126    1
 32395 39127 39128    1
 32396 39127 39129    1
 32397 39130 39131    1
 32398 39130 39132    1
 32399 39133 39134    1
 32400 39133 39135    1
 32401 39136 39137    1
 32402 39136 39138    1
 32403 39139 39140    1
 32404 39139 39141    1
 32405 39142 39143    1
 32406 39142 39144    1
 32407 39145 39146    1
 32408 39145 39147    1
 32409 39148 39149    1
 32410 39148 39150    1
 32411 39151 39152    1
 32412 39151 39153    1
 32413 39154 39155    1
 32414 39154 39156    1
 32415 39157 39158    1
 32416 39157 39159    1
 32417 39160 39161    1
 32418 39160 39162    1
 32419 39163 39164    1
 32420 39163 39165    1
 32421 39166 39167    1
 32422 39166 39168    1
 32423 39169 39170    1
 32424 39169 39171    1
 32425 39172 39173    1
 32426 39172 39174    1
 32427 39175 39176    1
 32428 39175 39177    1
 32429 39178 39179    1
 32430 39178 39180    1
 32431 39181 39182    1
 32432 39181 39183    1
 32433 39184 39185    1
 32434 39184 39186    1
 32435 39187 39188    1
 32436 39187 39189    1
 32437 39190 39191    1
 32438 39190 39192    1
 32439 39193 39194    1
 32440 39193 39195    1
 32441 39196 39197    1
 32442 39196 39198    1
 32443 39199 39200    1
 32444 39199 39201    1
 32445 39202 39203    1
 32446 39202 39204    1
 32447 39205 39206    1
 32448 39205 39207    1
 32449 39208 39209    1
 32450 39208 39210    1
 32451 39211 39212    1
 32452 39211 39213    1
 32453 39214 39215    1
 32454 39214 39216    1
 32455 39217 39218    1
 32456 39217 39219    1
 32457 39220 39221    1
 32458 39220 39222    1
 32459 39223 39224    1
 32460 39223 39225    1
 32461 39226 39227    1
 32462 39226 39228    1
 32463 39229 39230    1
 32464 39229 39231    1
 32465 39232 39233    1
 32466 39232 39234    1
 32467 39235 39236    1
 32468 39235 39237    1
 32469 39238 39239    1
 32470 39238 39240    1
 32471 39241 39242    1
 32472 39241 39243    1
 32473 39244 39245    1
 32474 39244 39246    1
 32475 39247 39248    1
 32476 39247 39249    1
 32477 39250 39251    1
 32478 39250 39252    1
 32479 39253 39254    1
 32480 39253 39255    1
 32481 39256 39257    1
 32482 39256 39258    1
 32483 39259 39260    1
 32484 39259 39261    1
 32485 39262 39263    1
 32486 39262 39264    1
 32487 39265 39266    1
 32488 39265 39267    1
 32489 39268 39269    1
 32490 39268 39270    1
 32491 39271 39272    1
 32492 39271 39273    1
 32493 39274 39275    1
 32494 39274 39276    1
 32495 39277 39278    1
 32496 39277 39279    1
 32497 39280 39281    1
 32498 39280 39282    1
 32499 39283 39284    1
 32500 39283 39285    1
 32501 39286 39287    1
 32502 39286 39288    1
 32503 39289 39290    1
 32504 39289 39291    1
 32505 39292 39293    1
 32506 39292 39294    1
 32507 39295 39296    1
 32508 39295 39297    1
 32509 39298 39299    1
 32510 39298 39300    1
 32511 39301 39302    1
 32512 39301 39303    1
 32513 39304 39305    1
 32514 39304 39306    1
 32515 39307 39308    1
 32516 39307 39309    1
 32517 39310 39311    1
 32518 39310 39312    1
 32519 39313 39314    1
 32520 39313 39315    1
 32521 39316 39317    1
 32522 39316 39318    1
 32523 39319 39320    1
 32524 39319 39321    1
 32525 39322 39323    1
 32526 39322 39324    1
 32527 39325 39326    1
 32528 39325 39327    1
 32529 39328 39329    1
 32530 39328 39330    1
 32531 39331 39332    1
 32532 39331 39333    1
 32533 39334 39335    1
 32534 39334 39336    1
 32535 39337 39338    1
 32536 39337 39339    1
 32537 39340 39341    1
 32538 39340 39342    1
 32539 39343 39344    1
 32540 39343 39345    1
 32541 39346 39347    1
 32542 39346 39348    1
 32543 39349 39350    1
 32544 39349 39351    1
 32545 39352 39353    1
 32546 39352 39354    1
 32547 39355 39356    1
 32548 39355 39357    1
 32549 39358 39359    1
 32550 39358 39360    1
 32551 39361 39362    1
 32552 39361 39363    1
 32553 39364 39365    1
 32554 39364 39366    1
 32555 39367 39368    1
 32556 39367 39369    1
 32557 39370 39371    1
 32558 39370 39372    1
 32559 39373 39374    1
 32560 39373 39375    1
 32561 39376 39377    1
 32562 39376 39378    1
 32563 39379 39380    1
 32564 39379 39381    1
 32565 39382 39383    1
 32566 39382 39384    1
 32567 39385 39386    1
 32568 39385 39387    1
 32569 39388 39389    1
 32570 39388 39390    1
 32571 39391 39392    1
 32572 39391 39393    1
 32573 39394 39395    1
 32574 39394 39396    1
 32575 39397 39398    1
 32576 39397 39399    1
 32577 39400 39401    1
 32578 39400 39402    1
 32579 39403 39404    1
 32580 39403 39405    1
 32581 39406 39407    1
 32582 39406 39408    1
 32583 39409 39410    1
 32584 39409 39411    1
 32585 39412 39413    1
 32586 39412 39414    1
 32587 39415 39416    1
 32588 39415 39417    1
 32589 39418 39419    1
 32590 39418 39420    1
 32591 39421 39422    1
 32592 39421 39423    1
 32593 39424 39425    1
 32594 39424 39426    1
 32595 39427 39428    1
 32596 39427 39429    1
 32597 39430 39431    1
 32598 39430 39432    1
 32599 39433 39434    1
 32600 39433 39435    1
 32601 39436 39437    1
 32602 39436 39438    1
 32603 39439 39440    1
 32604 39439 39441    1
 32605 39442 39443    1
 32606 39442 39444    1
 32607 39445 39446    1
 32608 39445 39447    1
 32609 39448 39449    1
 32610 39448 39450    1
 32611 39451 39452    1
 32612 39451 39453    1
 32613 39454 39455    1
 32614 39454 39456    1
 32615 39457 39458    1
 32616 39457 39459    1
 32617 39460 39461    1
 32618 39460 39462    1
 32619 39463 39464    1
 32620 39463 39465    1
 32621 39466 39467    1
 32622 39466 39468    1
 32623 39469 39470    1
 32624 39469 39471    1
 32625 39472 39473    1
 32626 39472 39474    1
 32627 39475 39476    1
 32628 39475 39477    1
 32629 39478 39479    1
 32630 39478 39480    1
 32631 39481 39482    1
 32632 39481 39483    1
 32633 39484 39485    1
 32634 39484 39486    1
 32635 39487 39488    1
 32636 39487 39489    1
 32637 39490 39491    1
 32638 39490 39492    1
 32639 39493 39494    1
 32640 39493 39495    1
 32641 39496 39497    1
 32642 39496 39498    1
 32643 39499 39500    1
 32644 39499 39501    1
 32645 39502 39503    1
 32646 39502 39504    1
 32647 39505 39506    1
 32648 39505 39507    1
 32649 39508 39509    1
 32650 39508 39510    1
 32651 39511 39512    1
 32652 39511 39513    1
 32653 39514 39515    1
 32654 39514 39516    1
 32655 39517 39518    1
 32656 39517 39519    1
 32657 39520 39521    1
 32658 39520 39522    1
 32659 39523 39524    1
 32660 39523 39525    1
 32661 39526 39527    1
 32662 39526 39528    1
 32663 39529 39530    1
 32664 39529 39531    1
 32665 39532 39533    1
 32666 39532 39534    1
 32667 39535 39536    1
 32668 39535 39537    1
 32669 39538 39539    1
 32670 39538 39540    1
 32671 39541 39542    1
 32672 39541 39543    1
 32673 39544 39545    1
 32674 39544 39546    1
 32675 39547 39548    1
 32676 39547 39549    1
 32677 39550 39551    1
 32678 39550 39552    1
 32679 39553 39554    1
 32680 39553 39555    1
 32681 39556 39557    1
 32682 39556 39558    1
 32683 39559 39560    1
 32684 39559 39561    1
 32685 39562 39563    1
 32686 39562 39564    1
 32687 39565 39566    1
 32688 39565 39567    1
 32689 39568 39569    1
 32690 39568 39570    1
 32691 39571 39572    1
 32692 39571 39573    1
 32693 39574 39575    1
 32694 39574 39576    1
 32695 39577 39578    1
 32696 39577 39579    1
 32697 39580 39581    1
 32698 39580 39582    1
 32699 39583 39584    1
 32700 39583 39585    1
 32701 39586 39587    1
 32702 39586 39588    1
 32703 39589 39590    1
 32704 39589 39591    1
 32705 39592 39593    1
 32706 39592 39594    1
 32707 39595 39596    1
 32708 39595 39597    1
 32709 39598 39599    1
 32710 39598 39600    1
 32711 39601 39602    1
 32712 39601 39603    1
 32713 39604 39605    1
 32714 39604 39606    1
 32715 39607 39608    1
 32716 39607 39609    1
 32717 39610 39611    1
 32718 39610 39612    1
 32719 39613 39614    1
 32720 39613 39615    1
 32721 39616 39617    1
 32722 39616 39618    1
 32723 39619 39620    1
 32724 39619 39621    1
 32725 39622 39623    1
 32726 39622 39624    1
 32727 39625 39626    1
 32728 39625 39627    1
 32729 39628 39629    1
 32730 39628 39630    1
 32731 39631 39632    1
 32732 39631 39633    1
 32733 39634 39635    1
 32734 39634 39636    1
 32735 39637 39638    1
 32736 39637 39639    1
 32737 39640 39641    1
 32738 39640 39642    1
 32739 39643 39644    1
 32740 39643 39645    1
 32741 39646 39647    1
 32742 39646 39648    1
 32743 39649 39650    1
 32744 39649 39651    1
 32745 39652 39653    1
 32746 39652 39654    1
 32747 39655 39656    1
 32748 39655 39657    1
 32749 39658 39659    1
 32750 39658 39660    1
 32751 39661 39662    1
 32752 39661 39663    1
 32753 39664 39665    1
 32754 39664 39666    1
 32755 39667 39668    1
 32756 39667 39669    1
 32757 39670 39671    1
 32758 39670 39672    1
 32759 39673 39674    1
 32760 39673 39675    1
 32761 39676 39677    1
 32762 39676 39678    1
 32763 39679 39680    1
 32764 39679 39681    1
 32765 39682 39683    1
 32766 39682 39684    1
 32767 39685 39686    1
 32768 39685 39687    1
 32769 39688 39689    1
 32770 39688 39690    1
 32771 39691 39692    1
 32772 39691 39693    1
 32773 39694 39695    1
 32774 39694 39696    1
 32775 39697 39698    1
 32776 39697 39699    1
 32777 39700 39701    1
 32778 39700 39702    1
 32779 39703 39704    1
 32780 39703 39705    1
 32781 39706 39707    1
 32782 39706 39708    1
 32783 39709 39710    1
 32784 39709 39711    1
 32785 39712 39713    1
 32786 39712 39714    1
 32787 39715 39716    1
 32788 39715 39717    1
 32789 39718 39719    1
 32790 39718 39720    1
 32791 39721 39722    1
 32792 39721 39723    1
 32793 39724 39725    1
 32794 39724 39726    1
 32795 39727 39728    1
 32796 39727 39729    1
 32797 39730 39731    1
 32798 39730 39732    1
 32799 39733 39734    1
 32800 39733 39735    1
 32801 39736 39737    1
 32802 39736 39738    1
 32803 39739 39740    1
 32804 39739 39741    1
 32805 39742 39743    1
 32806 39742 39744    1
 32807 39745 39746    1
 32808 39745 39747    1
 32809 39748 39749    1
 32810 39748 39750    1
 32811 39751 39752    1
 32812 39751 39753    1
 32813 39754 39755    1
 32814 39754 39756    1
 32815 39757 39758    1
 32816 39757 39759    1
 32817 39760 39761    1
 32818 39760 39762    1
 32819 39763 39764    1
 32820 39763 39765    1
 32821 39766 39767    1
 32822 39766 39768    1
 32823 39769 39770    1
 32824 39769 39771    1
 32825 39772 39773    1
 32826 39772 39774    1
 32827 39775 39776    1
 32828 39775 39777    1
 32829 39778 39779    1
 32830 39778 39780    1
 32831 39781 39782    1
 32832 39781 39783    1
 32833 39784 39785    1
 32834 39784 39786    1
 32835 39787 39788    1
 32836 39787 39789    1
 32837 39790 39791    1
 32838 39790 39792    1
 32839 39793 39794    1
 32840 39793 39795    1
 32841 39796 39797    1
 32842 39796 39798    1
 32843 39799 39800    1
 32844 39799 39801    1
 32845 39802 39803    1
 32846 39802 39804    1
 32847 39805 39806    1
 32848 39805 39807    1
 32849 39808 39809    1
 32850 39808 39810    1
 32851 39811 39812    1
 32852 39811 39813    1
 32853 39814 39815    1
 32854 39814 39816    1
 32855 39817 39818    1
 32856 39817 39819    1
 32857 39820 39821    1
 32858 39820 39822    1
 32859 39823 39824    1
 32860 39823 39825    1
 32861 39826 39827    1
 32862 39826 39828    1
 32863 39829 39830    1
 32864 39829 39831    1
 32865 39832 39833    1
 32866 39832 39834    1
 32867 39835 39836    1
 32868 39835 39837    1
 32869 39838 39839    1
 32870 39838 39840    1
 32871 39841 39842    1
 32872 39841 39843    1
 32873 39844 39845    1
 32874 39844 39846    1
 32875 39847 39848    1
 32876 39847 39849    1
 32877 39850 39851    1
 32878 39850 39852    1
 32879 39853 39854    1
 32880 39853 39855    1
 32881 39856 39857    1
 32882 39856 39858    1
 32883 39859 39860    1
 32884 39859 39861    1
 32885 39862 39863    1
 32886 39862 39864    1
 32887 39865 39866    1
 32888 39865 39867    1
 32889 39868 39869    1
 32890 39868 39870    1
 32891 39871 39872    1
 32892 39871 39873    1
 32893 39874 39875    1
 32894 39874 39876    1
 32895 39877 39878    1
 32896 39877 39879    1
 32897 39880 39881    1
 32898 39880 39882    1
 32899 39883 39884    1
 32900 39883 39885    1
 32901 39886 39887    1
 32902 39886 39888    1
 32903 39889 39890    1
 32904 39889 39891    1
 32905 39892 39893    1
 32906 39892 39894    1
 32907 39895 39896    1
 32908 39895 39897    1
 32909 39898 39899    1
 32910 39898 39900    1
 32911 39901 39902    1
 32912 39901 39903    1
 32913 39904 39905    1
 32914 39904 39906    1
 32915 39907 39908    1
 32916 39907 39909    1
 32917 39910 39911    1
 32918 39910 39912    1
 32919 39913 39914    1
 32920 39913 39915    1
 32921 39916 39917    1
 32922 39916 39918    1
 32923 39919 39920    1
 32924 39919 39921    1
 32925 39922 39923    1
 32926 39922 39924    1
 32927 39925 39926    1
 32928 39925 39927    1
 32929 39928 39929    1
 32930 39928 39930    1
 32931 39931 39932    1
 32932 39931 39933    1
 32933 39934 39935    1
 32934 39934 39936    1
 32935 39937 39938    1
 32936 39937 39939    1
 32937 39940 39941    1
 32938 39940 39942    1
 32939 39943 39944    1
 32940 39943 39945    1
 32941 39946 39947    1
 32942 39946 39948    1
 32943 39949 39950    1
 32944 39949 39951    1
 32945 39952 39953    1
 32946 39952 39954    1
 32947 39955 39956    1
 32948 39955 39957    1
 32949 39958 39959    1
 32950 39958 39960    1
 32951 39961 39962    1
 32952 39961 39963    1
 32953 39964 39965    1
 32954 39964 39966    1
 32955 39967 39968    1
 32956 39967 39969    1
 32957 39970 39971    1
 32958 39970 39972    1
 32959 39973 39974    1
 32960 39973 39975    1
 32961 39976 39977    1
 32962 39976 39978    1
 32963 39979 39980    1
 32964 39979 39981    1
 32965 39982 39983    1
 32966 39982 39984    1
 32967 39985 39986    1
 32968 39985 39987    1
 32969 39988 39989    1
 32970 39988 39990    1
 32971 39991 39992    1
 32972 39991 39993    1
 32973 39994 39995    1
 32974 39994 39996    1
 32975 39997 39998    1
 32976 39997 39999    1
 32977 40000 40001    1
 32978 40000 40002    1
 32979 40003 40004    1
 32980 40003 40005    1
 32981 40006 40007    1
 32982 40006 40008    1
 32983 40009 40010    1
 32984 40009 40011    1
 32985 40012 40013    1
 32986 40012 40014    1
 32987 40015 40016    1
 32988 40015 40017    1
 32989 40018 40019    1
 32990 40018 40020    1
 32991 40021 40022    1
 32992 40021 40023    1
 32993 40024 40025    1
 32994 40024 40026    1
 32995 40027 40028    1
 32996 40027 40029    1
 32997 40030 40031    1
 32998 40030 40032    1
 32999 40033 40034    1
 33000 40033 40035    1
 33001 40036 40037    1
 33002 40036 40038    1
 33003 40039 40040    1
 33004 40039 40041    1
 33005 40042 40043    1
 33006 40042 40044    1
 33007 40045 40046    1
 33008 40045 40047    1
 33009 40048 40049    1
 33010 40048 40050    1
 33011 40051 40052    1
 33012 40051 40053    1
 33013 40054 40055    1
 33014 40054 40056    1
 33015 40057 40058    1
 33016 40057 40059    1
 33017 40060 40061    1
 33018 40060 40062    1
 33019 40063 40064    1
 33020 40063 40065    1
 33021 40066 40067    1
 33022 40066 40068    1
 33023 40069 40070    1
 33024 40069 40071    1
 33025 40072 40073    1
 33026 40072 40074    1
 33027 40075 40076    1
 33028 40075 40077    1
 33029 40078 40079    1
 33030 40078 40080    1
 33031 40081 40082    1
 33032 40081 40083    1
 33033 40084 40085    1
 33034 40084 40086    1
 33035 40087 40088    1
 33036 40087 40089    1
 33037 40090 40091    1
 33038 40090 40092    1
 33039 40093 40094    1
 33040 40093 40095    1
 33041 40096 40097    1
 33042 40096 40098    1
 33043 40099 40100    1
 33044 40099 40101    1
 33045 40102 40103    1
 33046 40102 40104    1
 33047 40105 40106    1
 33048 40105 40107    1
 33049 40108 40109    1
 33050 40108 40110    1
 33051 40111 40112    1
 33052 40111 40113    1
 33053 40114 40115    1
 33054 40114 40116    1
 33055 40117 40118    1
 33056 40117 40119    1
 33057 40120 40121    1
 33058 40120 40122    1
 33059 40123 40124    1
 33060 40123 40125    1
 33061 40126 40127    1
 33062 40126 40128    1
 33063 40129 40130    1
 33064 40129 40131    1
 33065 40132 40133    1
 33066 40132 40134    1
 33067 40135 40136    1
 33068 40135 40137    1
 33069 40138 40139    1
 33070 40138 40140    1
 33071 40141 40142    1
 33072 40141 40143    1
 33073 40144 40145    1
 33074 40144 40146    1
 33075 40147 40148    1
 33076 40147 40149    1
 33077 40150 40151    1
 33078 40150 40152    1
 33079 40153 40154    1
 33080 40153 40155    1
 33081 40156 40157    1
 33082 40156 40158    1
 33083 40159 40160    1
 33084 40159 40161    1
 33085 40162 40163    1
 33086 40162 40164    1
 33087 40165 40166    1
 33088 40165 40167    1
 33089 40168 40169    1
 33090 40168 40170    1
 33091 40171 40172    1
 33092 40171 40173    1
 33093 40174 40175    1
 33094 40174 40176    1
 33095 40177 40178    1
 33096 40177 40179    1
 33097 40180 40181    1
 33098 40180 40182    1
 33099 40183 40184    1
 33100 40183 40185    1
 33101 40186 40187    1
 33102 40186 40188    1
 33103 40189 40190    1
 33104 40189 40191    1
 33105 40192 40193    1
 33106 40192 40194    1
 33107 40195 40196    1
 33108 40195 40197    1
 33109 40198 40199    1
 33110 40198 40200    1
 33111 40201 40202    1
 33112 40201 40203    1
 33113 40204 40205    1
 33114 40204 40206    1
 33115 40207 40208    1
 33116 40207 40209    1
 33117 40210 40211    1
 33118 40210 40212    1
 33119 40213 40214    1
 33120 40213 40215    1
 33121 40216 40217    1
 33122 40216 40218    1
 33123 40219 40220    1
 33124 40219 40221    1
 33125 40222 40223    1
 33126 40222 40224    1
 33127 40225 40226    1
 33128 40225 40227    1
 33129 40228 40229    1
 33130 40228 40230    1
 33131 40231 40232    1
 33132 40231 40233    1
 33133 40234 40235    1
 33134 40234 40236    1
 33135 40237 40238    1
 33136 40237 40239    1
 33137 40240 40241    1
 33138 40240 40242    1
 33139 40243 40244    1
 33140 40243 40245    1
 33141 40246 40247    1
 33142 40246 40248    1
 33143 40249 40250    1
 33144 40249 40251    1
 33145 40252 40253    1
 33146 40252 40254    1
 33147 40255 40256    1
 33148 40255 40257    1
 33149 40258 40259    1
 33150 40258 40260    1
 33151 40261 40262    1
 33152 40261 40263    1
 33153 40264 40265    1
 33154 40264 40266    1
 33155 40267 40268    1
 33156 40267 40269    1
 33157 40270 40271    1
 33158 40270 40272    1
 33159 40273 40274    1
 33160 40273 40275    1
 33161 40276 40277    1
 33162 40276 40278    1
 33163 40279 40280    1
 33164 40279 40281    1
 33165 40282 40283    1
 33166 40282 40284    1
 33167 40285 40286    1
 33168 40285 40287    1
 33169 40288 40289    1
 33170 40288 40290    1
 33171 40291 40292    1
 33172 40291 40293    1
 33173 40294 40295    1
 33174 40294 40296    1
 33175 40297 40298    1
 33176 40297 40299    1
 33177 40300 40301    1
 33178 40300 40302    1
 33179 40303 40304    1
 33180 40303 40305    1
 33181 40306 40307    1
 33182 40306 40308    1
 33183 40309 40310    1
 33184 40309 40311    1
 33185 40312 40313    1
 33186 40312 40314    1
 33187 40315 40316    1
 33188 40315 40317    1
 33189 40318 40319    1
 33190 40318 40320    1
 33191 40321 40322    1
 33192 40321 40323    1
 33193 40324 40325    1
 33194 40324 40326    1
 33195 40327 40328    1
 33196 40327 40329    1
 33197 40330 40331    1
 33198 40330 40332    1
 33199 40333 40334    1
 33200 40333 40335    1
 33201 40336 40337    1
 33202 40336 40338    1
 33203 40339 40340    1
 33204 40339 40341    1
 33205 40342 40343    1
 33206 40342 40344    1
 33207 40345 40346    1
 33208 40345 40347    1
 33209 40348 40349    1
 33210 40348 40350    1
 33211 40351 40352    1
 33212 40351 40353    1
 33213 40354 40355    1
 33214 40354 40356    1
 33215 40357 40358    1
 33216 40357 40359    1
 33217 40360 40361    1
 33218 40360 40362    1
 33219 40363 40364    1
 33220 40363 40365    1
 33221 40366 40367    1
 33222 40366 40368    1
 33223 40369 40370    1
 33224 40369 40371    1
 33225 40372 40373    1
 33226 40372 40374    1
 33227 40375 40376    1
 33228 40375 40377    1
 33229 40378 40379    1
 33230 40378 40380    1
 33231 40381 40382    1
 33232 40381 40383    1
 33233 40384 40385    1
 33234 40384 40386    1
 33235 40387 40388    1
 33236 40387 40389    1
 33237 40390 40391    1
 33238 40390 40392    1
 33239 40393 40394    1
 33240 40393 40395    1
 33241 40396 40397    1
 33242 40396 40398    1
 33243 40399 40400    1
 33244 40399 40401    1
 33245 40402 40403    1
 33246 40402 40404    1
 33247 40405 40406    1
 33248 40405 40407    1
 33249 40408 40409    1
 33250 40408 40410    1
 33251 40411 40412    1
 33252 40411 40413    1
 33253 40414 40415    1
 33254 40414 40416    1
 33255 40417 40418    1
 33256 40417 40419    1
 33257 40420 40421    1
 33258 40420 40422    1
 33259 40423 40424    1
 33260 40423 40425    1
 33261 40426 40427    1
 33262 40426 40428    1
 33263 40429 40430    1
 33264 40429 40431    1
 33265 40432 40433    1
 33266 40432 40434    1
 33267 40435 40436    1
 33268 40435 40437    1
 33269 40438 40439    1
 33270 40438 40440    1
 33271 40441 40442    1
 33272 40441 40443    1
 33273 40444 40445    1
 33274 40444 40446    1
 33275 40447 40448    1
 33276 40447 40449    1
 33277 40450 40451    1
 33278 40450 40452    1
 33279 40453 40454    1
 33280 40453 40455    1
 33281 40456 40457    1
 33282 40456 40458    1
 33283 40459 40460    1
 33284 40459 40461    1
 33285 40462 40463    1
 33286 40462 40464    1
 33287 40465 40466    1
 33288 40465 40467    1
 33289 40468 40469    1
 33290 40468 40470    1
 33291 40471 40472    1
 33292 40471 40473    1
 33293 40474 40475    1
 33294 40474 40476    1
 33295 40477 40478    1
 33296 40477 40479    1
 33297 40480 40481    1
 33298 40480 40482    1
 33299 40483 40484    1
 33300 40483 40485    1
 33301 40486 40487    1
 33302 40486 40488    1
 33303 40489 40490    1
 33304 40489 40491    1
 33305 40492 40493    1
 33306 40492 40494    1
 33307 40495 40496    1
 33308 40495 40497    1
 33309 40498 40499    1
 33310 40498 40500    1
 33311 40501 40502    1
 33312 40501 40503    1
 33313 40504 40505    1
 33314 40504 40506    1
 33315 40507 40508    1
 33316 40507 40509    1
 33317 40510 40511    1
 33318 40510 40512    1
 33319 40513 40514    1
 33320 40513 40515    1
 33321 40516 40517    1
 33322 40516 40518    1
 33323 40519 40520    1
 33324 40519 40521    1
 33325 40522 40523    1
 33326 40522 40524    1
 33327 40525 40526    1
 33328 40525 40527    1
 33329 40528 40529    1
 33330 40528 40530    1
 33331 40531 40532    1
 33332 40531 40533    1
 33333 40534 40535    1
 33334 40534 40536    1
 33335 40537 40538    1
 33336 40537 40539    1
 33337 40540 40541    1
 33338 40540 40542    1
 33339 40543 40544    1
 33340 40543 40545    1
 33341 40546 40547    1
 33342 40546 40548    1
 33343 40549 40550    1
 33344 40549 40551    1
 33345 40552 40553    1
 33346 40552 40554    1
 33347 40555 40556    1
 33348 40555 40557    1
 33349 40558 40559    1
 33350 40558 40560    1
 33351 40561 40562    1
 33352 40561 40563    1
 33353 40564 40565    1
 33354 40564 40566    1
 33355 40567 40568    1
 33356 40567 40569    1
 33357 40570 40571    1
 33358 40570 40572    1
 33359 40573 40574    1
 33360 40573 40575    1
 33361 40576 40577    1
 33362 40576 40578    1
 33363 40579 40580    1
 33364 40579 40581    1
 33365 40582 40583    1
 33366 40582 40584    1
 33367 40585 40586    1
 33368 40585 40587    1
 33369 40588 40589    1
 33370 40588 40590    1
 33371 40591 40592    1
 33372 40591 40593    1
 33373 40594 40595    1
 33374 40594 40596    1
 33375 40597 40598    1
 33376 40597 40599    1
 33377 40600 40601    1
 33378 40600 40602    1
 33379 40603 40604    1
 33380 40603 40605    1
 33381 40606 40607    1
 33382 40606 40608    1
 33383 40609 40610    1
 33384 40609 40611    1
 33385 40612 40613    1
 33386 40612 40614    1
 33387 40615 40616    1
 33388 40615 40617    1
 33389 40618 40619    1
 33390 40618 40620    1
 33391 40621 40622    1
 33392 40621 40623    1
 33393 40624 40625    1
 33394 40624 40626    1
 33395 40627 40628    1
 33396 40627 40629    1
 33397 40630 40631    1
 33398 40630 40632    1
 33399 40633 40634    1
 33400 40633 40635    1
 33401 40636 40637    1
 33402 40636 40638    1
 33403 40639 40640    1
 33404 40639 40641    1
 33405 40642 40643    1
 33406 40642 40644    1
 33407 40645 40646    1
 33408 40645 40647    1
 33409 40648 40649    1
 33410 40648 40650    1
 33411 40651 40652    1
 33412 40651 40653    1
 33413 40654 40655    1
 33414 40654 40656    1
 33415 40657 40658    1
 33416 40657 40659    1
 33417 40660 40661    1
 33418 40660 40662    1
 33419 40663 40664    1
 33420 40663 40665    1
 33421 40666 40667    1
 33422 40666 40668    1
 33423 40669 40670    1
 33424 40669 40671    1
 33425 40672 40673    1
 33426 40672 40674    1
 33427 40675 40676    1
 33428 40675 40677    1
 33429 40678 40679    1
 33430 40678 40680    1
 33431 40681 40682    1
 33432 40681 40683    1
 33433 40684 40685    1
 33434 40684 40686    1
 33435 40687 40688    1
 33436 40687 40689    1
 33437 40690 40691    1
 33438 40690 40692    1
 33439 40693 40694    1
 33440 40693 40695    1
 33441 40696 40697    1
 33442 40696 40698    1
 33443 40699 40700    1
 33444 40699 40701    1
 33445 40702 40703    1
 33446 40702 40704    1
 33447 40705 40706    1
 33448 40705 40707    1
 33449 40708 40709    1
 33450 40708 40710    1
 33451 40711 40712    1
 33452 40711 40713    1
 33453 40714 40715    1
 33454 40714 40716    1
 33455 40717 40718    1
 33456 40717 40719    1
 33457 40720 40721    1
 33458 40720 40722    1
 33459 40723 40724    1
 33460 40723 40725    1
 33461 40726 40727    1
 33462 40726 40728    1
 33463 40729 40730    1
 33464 40729 40731    1
 33465 40732 40733    1
 33466 40732 40734    1
 33467 40735 40736    1
 33468 40735 40737    1
 33469 40738 40739    1
 33470 40738 40740    1
 33471 40741 40742    1
 33472 40741 40743    1
 33473 40744 40745    1
 33474 40744 40746    1
 33475 40747 40748    1
 33476 40747 40749    1
 33477 40750 40751    1
 33478 40750 40752    1
 33479 40753 40754    1
 33480 40753 40755    1
 33481 40756 40757    1
 33482 40756 40758    1
 33483 40759 40760    1
 33484 40759 40761    1
 33485 40762 40763    1
 33486 40762 40764    1
 33487 40765 40766    1
 33488 40765 40767    1
 33489 40768 40769    1
 33490 40768 40770    1
 33491 40771 40772    1
 33492 40771 40773    1
 33493 40774 40775    1
 33494 40774 40776    1
 33495 40777 40778    1
 33496 40777 40779    1
 33497 40780 40781    1
 33498 40780 40782    1
 33499 40783 40784    1
 33500 40783 40785    1
 33501 40786 40787    1
 33502 40786 40788    1
 33503 40789 40790    1
 33504 40789 40791    1
 33505 40792 40793    1
 33506 40792 40794    1
 33507 40795 40796    1
 33508 40795 40797    1
 33509 40798 40799    1
 33510 40798 40800    1
 33511 40801 40802    1
 33512 40801 40803    1
 33513 40804 40805    1
 33514 40804 40806    1
 33515 40807 40808    1
 33516 40807 40809    1
 33517 40810 40811    1
 33518 40810 40812    1
 33519 40813 40814    1
 33520 40813 40815    1
 33521 40816 40817    1
 33522 40816 40818    1
 33523 40819 40820    1
 33524 40819 40821    1
 33525 40822 40823    1
 33526 40822 40824    1
 33527 40825 40826    1
 33528 40825 40827    1
 33529 40828 40829    1
 33530 40828 40830    1
 33531 40831 40832    1
 33532 40831 40833    1
 33533 40834 40835    1
 33534 40834 40836    1
 33535 40837 40838    1
 33536 40837 40839    1
 33537 40840 40841    1
 33538 40840 40842    1
 33539 40843 40844    1
 33540 40843 40845    1
 33541 40846 40847    1
 33542 40846 40848    1
 33543 40849 40850    1
 33544 40849 40851    1
 33545 40852 40853    1
 33546 40852 40854    1
 33547 40855 40856    1
 33548 40855 40857    1
 33549 40858 40859    1
 33550 40858 40860    1
 33551 40861 40862    1
 33552 40861 40863    1
 33553 40864 40865    1
 33554 40864 40866    1
 33555 40867 40868    1
 33556 40867 40869    1
 33557 40870 40871    1
 33558 40870 40872    1
 33559 40873 40874    1
 33560 40873 40875    1
 33561 40876 40877    1
 33562 40876 40878    1
 33563 40879 40880    1
 33564 40879 40881    1
 33565 40882 40883    1
 33566 40882 40884    1
 33567 40885 40886    1
 33568 40885 40887    1
 33569 40888 40889    1
 33570 40888 40890    1
 33571 40891 40892    1
 33572 40891 40893    1
 33573 40894 40895    1
 33574 40894 40896    1
 33575 40897 40898    1
 33576 40897 40899    1
 33577 40900 40901    1
 33578 40900 40902    1
 33579 40903 40904    1
 33580 40903 40905    1
 33581 40906 40907    1
 33582 40906 40908    1
 33583 40909 40910    1
 33584 40909 40911    1
 33585 40912 40913    1
 33586 40912 40914    1
 33587 40915 40916    1
 33588 40915 40917    1
 33589 40918 40919    1
 33590 40918 40920    1
 33591 40921 40922    1
 33592 40921 40923    1
 33593 40924 40925    1
 33594 40924 40926    1
 33595 40927 40928    1
 33596 40927 40929    1
 33597 40930 40931    1
 33598 40930 40932    1
 33599 40933 40934    1
 33600 40933 40935    1
 33601 40936 40937    1
 33602 40936 40938    1
 33603 40939 40940    1
 33604 40939 40941    1
 33605 40942 40943    1
 33606 40942 40944    1
 33607 40945 40946    1
 33608 40945 40947    1
 33609 40948 40949    1
 33610 40948 40950    1
 33611 40951 40952    1
 33612 40951 40953    1
 33613 40954 40955    1
 33614 40954 40956    1
 33615 40957 40958    1
 33616 40957 40959    1
 33617 40960 40961    1
 33618 40960 40962    1
 33619 40963 40964    1
 33620 40963 40965    1
 33621 40966 40967    1
 33622 40966 40968    1
 33623 40969 40970    1
 33624 40969 40971    1
 33625 40972 40973    1
 33626 40972 40974    1
 33627 40975 40976    1
 33628 40975 40977    1
 33629 40978 40979    1
 33630 40978 40980    1
 33631 40981 40982    1
 33632 40981 40983    1
 33633 40984 40985    1
 33634 40984 40986    1
 33635 40987 40988    1
 33636 40987 40989    1
 33637 40990 40991    1
 33638 40990 40992    1
 33639 40993 40994    1
 33640 40993 40995    1
 33641 40996 40997    1
 33642 40996 40998    1
 33643 40999 41000    1
 33644 40999 41001    1
 33645 41002 41003    1
 33646 41002 41004    1
 33647 41005 41006    1
 33648 41005 41007    1
 33649 41008 41009    1
 33650 41008 41010    1
 33651 41011 41012    1
 33652 41011 41013    1
 33653 41014 41015    1
 33654 41014 41016    1
 33655 41017 41018    1
 33656 41017 41019    1
 33657 41020 41021    1
 33658 41020 41022    1
 33659 41023 41024    1
 33660 41023 41025    1
 33661 41026 41027    1
 33662 41026 41028    1
 33663 41029 41030    1
 33664 41029 41031    1
 33665 41032 41033    1
 33666 41032 41034    1
 33667 41035 41036    1
 33668 41035 41037    1
 33669 41038 41039    1
 33670 41038 41040    1
 33671 41041 41042    1
 33672 41041 41043    1
 33673 41044 41045    1
 33674 41044 41046    1
 33675 41047 41048    1
 33676 41047 41049    1
 33677 41050 41051    1
 33678 41050 41052    1
 33679 41053 41054    1
 33680 41053 41055    1
 33681 41056 41057    1
 33682 41056 41058    1
 33683 41059 41060    1
 33684 41059 41061    1
 33685 41062 41063    1
 33686 41062 41064    1
 33687 41065 41066    1
 33688 41065 41067    1
 33689 41068 41069    1
 33690 41068 41070    1
 33691 41071 41072    1
 33692 41071 41073    1
 33693 41074 41075    1
 33694 41074 41076    1
 33695 41077 41078    1
 33696 41077 41079    1
 33697 41080 41081    1
 33698 41080 41082    1
 33699 41083 41084    1
 33700 41083 41085    1
 33701 41086 41087    1
 33702 41086 41088    1
 33703 41089 41090    1
 33704 41089 41091    1
 33705 41092 41093    1
 33706 41092 41094    1
 33707 41095 41096    1
 33708 41095 41097    1
 33709 41098 41099    1
 33710 41098 41100    1
 33711 41101 41102    1
 33712 41101 41103    1
 33713 41104 41105    1
 33714 41104 41106    1
 33715 41107 41108    1
 33716 41107 41109    1
 33717 41110 41111    1
 33718 41110 41112    1
 33719 41113 41114    1
 33720 41113 41115    1
 33721 41116 41117    1
 33722 41116 41118    1
 33723 41119 41120    1
 33724 41119 41121    1
 33725 41122 41123    1
 33726 41122 41124    1
 33727 41125 41126    1
 33728 41125 41127    1
 33729 41128 41129    1
 33730 41128 41130    1
 33731 41131 41132    1
 33732 41131 41133    1
 33733 41134 41135    1
 33734 41134 41136    1
 33735 41137 41138    1
 33736 41137 41139    1
 33737 41140 41141    1
 33738 41140 41142    1
 33739 41143 41144    1
 33740 41143 41145    1
 33741 41146 41147    1
 33742 41146 41148    1
 33743 41149 41150    1
 33744 41149 41151    1
 33745 41152 41153    1
 33746 41152 41154    1
 33747 41155 41156    1
 33748 41155 41157    1
 33749 41158 41159    1
 33750 41158 41160    1
 33751 41161 41162    1
 33752 41161 41163    1
 33753 41164 41165    1
 33754 41164 41166    1
 33755 41167 41168    1
 33756 41167 41169    1
 33757 41170 41171    1
 33758 41170 41172    1
 33759 41173 41174    1
 33760 41173 41175    1
 33761 41176 41177    1
 33762 41176 41178    1
 33763 41179 41180    1
 33764 41179 41181    1
 33765 41182 41183    1
 33766 41182 41184    1
 33767 41185 41186    1
 33768 41185 41187    1
 33769 41188 41189    1
 33770 41188 41190    1
 33771 41191 41192    1
 33772 41191 41193    1
 33773 41194 41195    1
 33774 41194 41196    1
 33775 41197 41198    1
 33776 41197 41199    1
 33777 41200 41201    1
 33778 41200 41202    1
 33779 41203 41204    1
 33780 41203 41205    1
 33781 41206 41207    1
 33782 41206 41208    1
 33783 41209 41210    1
 33784 41209 41211    1
 33785 41212 41213    1
 33786 41212 41214    1
 33787 41215 41216    1
 33788 41215 41217    1
 33789 41218 41219    1
 33790 41218 41220    1
 33791 41221 41222    1
 33792 41221 41223    1
 33793 41224 41225    1
 33794 41224 41226    1
 33795 41227 41228    1
 33796 41227 41229    1
 33797 41230 41231    1
 33798 41230 41232    1
 33799 41233 41234    1
 33800 41233 41235    1
 33801 41236 41237    1
 33802 41236 41238    1
 33803 41239 41240    1
 33804 41239 41241    1
 33805 41242 41243    1
 33806 41242 41244    1
 33807 41245 41246    1
 33808 41245 41247    1
 33809 41248 41249    1
 33810 41248 41250    1
 33811 41251 41252    1
 33812 41251 41253    1
 33813 41254 41255    1
 33814 41254 41256    1
 33815 41257 41258    1
 33816 41257 41259    1
 33817 41260 41261    1
 33818 41260 41262    1
 33819 41263 41264    1
 33820 41263 41265    1
 33821 41266 41267    1
 33822 41266 41268    1
 33823 41269 41270    1
 33824 41269 41271    1
 33825 41272 41273    1
 33826 41272 41274    1
 33827 41275 41276    1
 33828 41275 41277    1
 33829 41278 41279    1
 33830 41278 41280    1
 33831 41281 41282    1
 33832 41281 41283    1
 33833 41284 41285    1
 33834 41284 41286    1
 33835 41287 41288    1
 33836 41287 41289    1
 33837 41290 41291    1
 33838 41290 41292    1
 33839 41293 41294    1
 33840 41293 41295    1
 33841 41296 41297    1
 33842 41296 41298    1
 33843 41299 41300    1
 33844 41299 41301    1
 33845 41302 41303    1
 33846 41302 41304    1
 33847 41305 41306    1
 33848 41305 41307    1
 33849 41308 41309    1
 33850 41308 41310    1
 33851 41311 41312    1
 33852 41311 41313    1
 33853 41314 41315    1
 33854 41314 41316    1
 33855 41317 41318    1
 33856 41317 41319    1
 33857 41320 41321    1
 33858 41320 41322    1
 33859 41323 41324    1
 33860 41323 41325    1
 33861 41326 41327    1
 33862 41326 41328    1
 33863 41329 41330    1
 33864 41329 41331    1
 33865 41332 41333    1
 33866 41332 41334    1
 33867 41335 41336    1
 33868 41335 41337    1
 33869 41338 41339    1
 33870 41338 41340    1
 33871 41341 41342    1
 33872 41341 41343    1
 33873 41344 41345    1
 33874 41344 41346    1
 33875 41347 41348    1
 33876 41347 41349    1
 33877 41350 41351    1
 33878 41350 41352    1
 33879 41353 41354    1
 33880 41353 41355    1
 33881 41356 41357    1
 33882 41356 41358    1
 33883 41359 41360    1
 33884 41359 41361    1
 33885 41362 41363    1
 33886 41362 41364    1
 33887 41365 41366    1
 33888 41365 41367    1
 33889 41368 41369    1
 33890 41368 41370    1
 33891 41371 41372    1
 33892 41371 41373    1
 33893 41374 41375    1
 33894 41374 41376    1
 33895 41377 41378    1
 33896 41377 41379    1
 33897 41380 41381    1
 33898 41380 41382    1
 33899 41383 41384    1
 33900 41383 41385    1
 33901 41386 41387    1
 33902 41386 41388    1
 33903 41389 41390    1
 33904 41389 41391    1
 33905 41392 41393    1
 33906 41392 41394    1
 33907 41395 41396    1
 33908 41395 41397    1
 33909 41398 41399    1
 33910 41398 41400    1
 33911 41401 41402    1
 33912 41401 41403    1
 33913 41404 41405    1
 33914 41404 41406    1
 33915 41407 41408    1
 33916 41407 41409    1
 33917 41410 41411    1
 33918 41410 41412    1
 33919 41413 41414    1
 33920 41413 41415    1
 33921 41416 41417    1
 33922 41416 41418    1
 33923 41419 41420    1
 33924 41419 41421    1
 33925 41422 41423    1
 33926 41422 41424    1
 33927 41425 41426    1
 33928 41425 41427    1
 33929 41428 41429    1
 33930 41428 41430    1
 33931 41431 41432    1
 33932 41431 41433    1
 33933 41434 41435    1
 33934 41434 41436    1
 33935 41437 41438    1
 33936 41437 41439    1
 33937 41440 41441    1
 33938 41440 41442    1
 33939 41443 41444    1
 33940 41443 41445    1
 33941 41446 41447    1
 33942 41446 41448    1
 33943 41449 41450    1
 33944 41449 41451    1
 33945 41452 41453    1
 33946 41452 41454    1
 33947 41455 41456    1
 33948 41455 41457    1
 33949 41458 41459    1
 33950 41458 41460    1
 33951 41461 41462    1
 33952 41461 41463    1
 33953 41464 41465    1
 33954 41464 41466    1
 33955 41467 41468    1
 33956 41467 41469    1
 33957 41470 41471    1
 33958 41470 41472    1
 33959 41473 41474    1
 33960 41473 41475    1
 33961 41476 41477    1
 33962 41476 41478    1
 33963 41479 41480    1
 33964 41479 41481    1
 33965 41482 41483    1
 33966 41482 41484    1
 33967 41485 41486    1
 33968 41485 41487    1
 33969 41488 41489    1
 33970 41488 41490    1
 33971 41491 41492    1
 33972 41491 41493    1
 33973 41494 41495    1
 33974 41494 41496    1
 33975 41497 41498    1
 33976 41497 41499    1
 33977 41500 41501    1
 33978 41500 41502    1
 33979 41503 41504    1
 33980 41503 41505    1
 33981 41506 41507    1
 33982 41506 41508    1
 33983 41509 41510    1
 33984 41509 41511    1
 33985 41512 41513    1
 33986 41512 41514    1
 33987 41515 41516    1
 33988 41515 41517    1
 33989 41518 41519    1
 33990 41518 41520    1
 33991 41521 41522    1
 33992 41521 41523    1
 33993 41524 41525    1
 33994 41524 41526    1
 33995 41527 41528    1
 33996 41527 41529    1
 33997 41530 41531    1
 33998 41530 41532    1
 33999 41533 41534    1
 34000 41533 41535    1
 34001 41536 41537    1
 34002 41536 41538    1
 34003 41539 41540    1
 34004 41539 41541    1
 34005 41542 41543    1
 34006 41542 41544    1
 34007 41545 41546    1
 34008 41545 41547    1
 34009 41548 41549    1
 34010 41548 41550    1
 34011 41551 41552    1
 34012 41551 41553    1
 34013 41554 41555    1
 34014 41554 41556    1
 34015 41557 41558    1
 34016 41557 41559    1
 34017 41560 41561    1
 34018 41560 41562    1
 34019 41563 41564    1
 34020 41563 41565    1
 34021 41566 41567    1
 34022 41566 41568    1
 34023 41569 41570    1
 34024 41569 41571    1
 34025 41572 41573    1
 34026 41572 41574    1
 34027 41575 41576    1
 34028 41575 41577    1
 34029 41578 41579    1
 34030 41578 41580    1
 34031 41581 41582    1
 34032 41581 41583    1
 34033 41584 41585    1
 34034 41584 41586    1
 34035 41587 41588    1
 34036 41587 41589    1
 34037 41590 41591    1
 34038 41590 41592    1
 34039 41593 41594    1
 34040 41593 41595    1
 34041 41596 41597    1
 34042 41596 41598    1
 34043 41599 41600    1
 34044 41599 41601    1
 34045 41602 41603    1
 34046 41602 41604    1
 34047 41605 41606    1
 34048 41605 41607    1
 34049 41608 41609    1
 34050 41608 41610    1
 34051 41611 41612    1
 34052 41611 41613    1
 34053 41614 41615    1
 34054 41614 41616    1
 34055 41617 41618    1
 34056 41617 41619    1
 34057 41620 41621    1
 34058 41620 41622    1
 34059 41623 41624    1
 34060 41623 41625    1
 34061 41626 41627    1
 34062 41626 41628    1
 34063 41629 41630    1
 34064 41629 41631    1
 34065 41632 41633    1
 34066 41632 41634    1
 34067 41635 41636    1
 34068 41635 41637    1
 34069 41638 41639    1
 34070 41638 41640    1
 34071 41641 41642    1
 34072 41641 41643    1
 34073 41644 41645    1
 34074 41644 41646    1
 34075 41647 41648    1
 34076 41647 41649    1
 34077 41650 41651    1
 34078 41650 41652    1
 34079 41653 41654    1
 34080 41653 41655    1
 34081 41656 41657    1
 34082 41656 41658    1
 34083 41659 41660    1
 34084 41659 41661    1
 34085 41662 41663    1
 34086 41662 41664    1
 34087 41665 41666    1
 34088 41665 41667    1
 34089 41668 41669    1
 34090 41668 41670    1
 34091 41671 41672    1
 34092 41671 41673    1
 34093 41674 41675    1
 34094 41674 41676    1
 34095 41677 41678    1
 34096 41677 41679    1
 34097 41680 41681    1
 34098 41680 41682    1
 34099 41683 41684    1
 34100 41683 41685    1
 34101 41686 41687    1
 34102 41686 41688    1
 34103 41689 41690    1
 34104 41689 41691    1
 34105 41692 41693    1
 34106 41692 41694    1
 34107 41695 41696    1
 34108 41695 41697    1
 34109 41698 41699    1
 34110 41698 41700    1
 34111 41701 41702    1
 34112 41701 41703    1
 34113 41704 41705    1
 34114 41704 41706    1
 34115 41707 41708    1
 34116 41707 41709    1
 34117 41710 41711    1
 34118 41710 41712    1
 34119 41713 41714    1
 34120 41713 41715    1
 34121 41716 41717    1
 34122 41716 41718    1
 34123 41719 41720    1
 34124 41719 41721    1
 34125 41722 41723    1
 34126 41722 41724    1
 34127 41725 41726    1
 34128 41725 41727    1
 34129 41728 41729    1
 34130 41728 41730    1
 34131 41731 41732    1
 34132 41731 41733    1
 34133 41734 41735    1
 34134 41734 41736    1
 34135 41737 41738    1
 34136 41737 41739    1
 34137 41740 41741    1
 34138 41740 41742    1
 34139 41743 41744    1
 34140 41743 41745    1
 34141 41746 41747    1
 34142 41746 41748    1
 34143 41749 41750    1
 34144 41749 41751    1
 34145 41752 41753    1
 34146 41752 41754    1
 34147 41755 41756    1
 34148 41755 41757    1
 34149 41758 41759    1
 34150 41758 41760    1
 34151 41761 41762    1
 34152 41761 41763    1
 34153 41764 41765    1
 34154 41764 41766    1
 34155 41767 41768    1
 34156 41767 41769    1
 34157 41770 41771    1
 34158 41770 41772    1
 34159 41773 41774    1
 34160 41773 41775    1
 34161 41776 41777    1
 34162 41776 41778    1
 34163 41779 41780    1
 34164 41779 41781    1
 34165 41782 41783    1
 34166 41782 41784    1
 34167 41785 41786    1
 34168 41785 41787    1
 34169 41788 41789    1
 34170 41788 41790    1
 34171 41791 41792    1
 34172 41791 41793    1
 34173 41794 41795    1
 34174 41794 41796    1
 34175 41797 41798    1
 34176 41797 41799    1
 34177 41800 41801    1
 34178 41800 41802    1
 34179 41803 41804    1
 34180 41803 41805    1
 34181 41806 41807    1
 34182 41806 41808    1
 34183 41809 41810    1
 34184 41809 41811    1
 34185 41812 41813    1
 34186 41812 41814    1
 34187 41815 41816    1
 34188 41815 41817    1
 34189 41818 41819    1
 34190 41818 41820    1
 34191 41821 41822    1
 34192 41821 41823    1
 34193 41824 41825    1
 34194 41824 41826    1
 34195 41827 41828    1
 34196 41827 41829    1
 34197 41830 41831    1
 34198 41830 41832    1
 34199 41833 41834    1
 34200 41833 41835    1
 34201 41836 41837    1
 34202 41836 41838    1
 34203 41839 41840    1
 34204 41839 41841    1
 34205 41842 41843    1
 34206 41842 41844    1
 34207 41845 41846    1
 34208 41845 41847    1
 34209 41848 41849    1
 34210 41848 41850    1
 34211 41851 41852    1
 34212 41851 41853    1
 34213 41854 41855    1
 34214 41854 41856    1
 34215 41857 41858    1
 34216 41857 41859    1
 34217 41860 41861    1
 34218 41860 41862    1
 34219 41863 41864    1
 34220 41863 41865    1
 34221 41866 41867    1
 34222 41866 41868    1
 34223 41869 41870    1
 34224 41869 41871    1
 34225 41872 41873    1
 34226 41872 41874    1
 34227 41875 41876    1
 34228 41875 41877    1
 34229 41878 41879    1
 34230 41878 41880    1
 34231 41881 41882    1
 34232 41881 41883    1
 34233 41884 41885    1
 34234 41884 41886    1
 34235 41887 41888    1
 34236 41887 41889    1
 34237 41890 41891    1
 34238 41890 41892    1
 34239 41893 41894    1
 34240 41893 41895    1
 34241 41896 41897    1
 34242 41896 41898    1
 34243 41899 41900    1
 34244 41899 41901    1
 34245 41902 41903    1
 34246 41902 41904    1
 34247 41905 41906    1
 34248 41905 41907    1
 34249 41908 41909    1
 34250 41908 41910    1
 34251 41911 41912    1
 34252 41911 41913    1
 34253 41914 41915    1
 34254 41914 41916    1
 34255 41917 41918    1
 34256 41917 41919    1
 34257 41920 41921    1
 34258 41920 41922    1
 34259 41923 41924    1
 34260 41923 41925    1
 34261 41926 41927    1
 34262 41926 41928    1
 34263 41929 41930    1
 34264 41929 41931    1
 34265 41932 41933    1
 34266 41932 41934    1
 34267 41935 41936    1
 34268 41935 41937    1
 34269 41938 41939    1
 34270 41938 41940    1
 34271 41941 41942    1
 34272 41941 41943    1
 34273 41944 41945    1
 34274 41944 41946    1
 34275 41947 41948    1
 34276 41947 41949    1
 34277 41950 41951    1
 34278 41950 41952    1
 34279 41953 41954    1
 34280 41953 41955    1
 34281 41956 41957    1
 34282 41956 41958    1
 34283 41959 41960    1
 34284 41959 41961    1
 34285 41962 41963    1
 34286 41962 41964    1
 34287 41965 41966    1
 34288 41965 41967    1
 34289 41968 41969    1
 34290 41968 41970    1
 34291 41971 41972    1
 34292 41971 41973    1
 34293 41974 41975    1
 34294 41974 41976    1
 34295 41977 41978    1
 34296 41977 41979    1
 34297 41980 41981    1
 34298 41980 41982    1
 34299 41983 41984    1
 34300 41983 41985    1
 34301 41986 41987    1
 34302 41986 41988    1
 34303 41989 41990    1
 34304 41989 41991    1
 34305 41992 41993    1
 34306 41992 41994    1
 34307 41995 41996    1
 34308 41995 41997    1
 34309 41998 41999    1
 34310 41998 42000    1
 34311 42001 42002    1
 34312 42001 42003    1
 34313 42004 42005    1
 34314 42004 42006    1
 34315 42007 42008    1
 34316 42007 42009    1
 34317 42010 42011    1
 34318 42010 42012    1
 34319 42013 42014    1
 34320 42013 42015    1
 34321 42016 42017    1
 34322 42016 42018    1
 34323 42019 42020    1
 34324 42019 42021    1
 34325 42022 42023    1
 34326 42022 42024    1
 34327 42025 42026    1
 34328 42025 42027    1
 34329 42028 42029    1
 34330 42028 42030    1
 34331 42031 42032    1
 34332 42031 42033    1
 34333 42034 42035    1
 34334 42034 42036    1
 34335 42037 42038    1
 34336 42037 42039    1
 34337 42040 42041    1
 34338 42040 42042    1
 34339 42043 42044    1
 34340 42043 42045    1
 34341 42046 42047    1
 34342 42046 42048    1
 34343 42049 42050    1
 34344 42049 42051    1
 34345 42052 42053    1
 34346 42052 42054    1
 34347 42055 42056    1
 34348 42055 42057    1
 34349 42058 42059    1
 34350 42058 42060    1
 34351 42061 42062    1
 34352 42061 42063    1
 34353 42064 42065    1
 34354 42064 42066    1
 34355 42067 42068    1
 34356 42067 42069    1
 34357 42070 42071    1
 34358 42070 42072    1
 34359 42073 42074    1
 34360 42073 42075    1
 34361 42076 42077    1
 34362 42076 42078    1
 34363 42079 42080    1
 34364 42079 42081    1
 34365 42082 42083    1
 34366 42082 42084    1
 34367 42085 42086    1
 34368 42085 42087    1
 34369 42088 42089    1
 34370 42088 42090    1
 34371 42091 42092    1
 34372 42091 42093    1
 34373 42094 42095    1
 34374 42094 42096    1
 34375 42097 42098    1
 34376 42097 42099    1
 34377 42100 42101    1
 34378 42100 42102    1
 34379 42103 42104    1
 34380 42103 42105    1
 34381 42106 42107    1
 34382 42106 42108    1
 34383 42109 42110    1
 34384 42109 42111    1
 34385 42112 42113    1
 34386 42112 42114    1
 34387 42115 42116    1
 34388 42115 42117    1
 34389 42118 42119    1
 34390 42118 42120    1
 34391 42121 42122    1
 34392 42121 42123    1
 34393 42124 42125    1
 34394 42124 42126    1
 34395 42127 42128    1
 34396 42127 42129    1
 34397 42130 42131    1
 34398 42130 42132    1
 34399 42133 42134    1
 34400 42133 42135    1
 34401 42136 42137    1
 34402 42136 42138    1
 34403 42139 42140    1
 34404 42139 42141    1
 34405 42142 42143    1
 34406 42142 42144    1
 34407 42145 42146    1
 34408 42145 42147    1
 34409 42148 42149    1
 34410 42148 42150    1
 34411 42151 42152    1
 34412 42151 42153    1
 34413 42154 42155    1
 34414 42154 42156    1
 34415 42157 42158    1
 34416 42157 42159    1
 34417 42160 42161    1
 34418 42160 42162    1
 34419 42163 42164    1
 34420 42163 42165    1
 34421 42166 42167    1
 34422 42166 42168    1
 34423 42169 42170    1
 34424 42169 42171    1
 34425 42172 42173    1
 34426 42172 42174    1
 34427 42175 42176    1
 34428 42175 42177    1
 34429 42178 42179    1
 34430 42178 42180    1
 34431 42181 42182    1
 34432 42181 42183    1
 34433 42184 42185    1
 34434 42184 42186    1
 34435 42187 42188    1
 34436 42187 42189    1
 34437 42190 42191    1
 34438 42190 42192    1
 34439 42193 42194    1
 34440 42193 42195    1
 34441 42196 42197    1
 34442 42196 42198    1
 34443 42199 42200    1
 34444 42199 42201    1
 34445 42202 42203    1
 34446 42202 42204    1
 34447 42205 42206    1
 34448 42205 42207    1
 34449 42208 42209    1
 34450 42208 42210    1
 34451 42211 42212    1
 34452 42211 42213    1
 34453 42214 42215    1
 34454 42214 42216    1
 34455 42217 42218    1
 34456 42217 42219    1
 34457 42220 42221    1
 34458 42220 42222    1
 34459 42223 42224    1
 34460 42223 42225    1
 34461 42226 42227    1
 34462 42226 42228    1
 34463 42229 42230    1
 34464 42229 42231    1
 34465 42232 42233    1
 34466 42232 42234    1
 34467 42235 42236    1
 34468 42235 42237    1
 34469 42238 42239    1
 34470 42238 42240    1
 34471 42241 42242    1
 34472 42241 42243    1
 34473 42244 42245    1
 34474 42244 42246    1
 34475 42247 42248    1
 34476 42247 42249    1
 34477 42250 42251    1
 34478 42250 42252    1
 34479 42253 42254    1
 34480 42253 42255    1
 34481 42256 42257    1
 34482 42256 42258    1
 34483 42259 42260    1
 34484 42259 42261    1
 34485 42262 42263    1
 34486 42262 42264    1
 34487 42265 42266    1
 34488 42265 42267    1
 34489 42268 42269    1
 34490 42268 42270    1
 34491 42271 42272    1
 34492 42271 42273    1
 34493 42274 42275    1
 34494 42274 42276    1
 34495 42277 42278    1
 34496 42277 42279    1
 34497 42280 42281    1
 34498 42280 42282    1
 34499 42283 42284    1
 34500 42283 42285    1
 34501 42286 42287    1
 34502 42286 42288    1
 34503 42289 42290    1
 34504 42289 42291    1
 34505 42292 42293    1
 34506 42292 42294    1
 34507 42295 42296    1
 34508 42295 42297    1
 34509 42298 42299    1
 34510 42298 42300    1
 34511 42301 42302    1
 34512 42301 42303    1
 34513 42304 42305    1
 34514 42304 42306    1
 34515 42307 42308    1
 34516 42307 42309    1
 34517 42310 42311    1
 34518 42310 42312    1
 34519 42313 42314    1
 34520 42313 42315    1
 34521 42316 42317    1
 34522 42316 42318    1
 34523 42319 42320    1
 34524 42319 42321    1
 34525 42322 42323    1
 34526 42322 42324    1
 34527 42325 42326    1
 34528 42325 42327    1
 34529 42328 42329    1
 34530 42328 42330    1
 34531 42331 42332    1
 34532 42331 42333    1
 34533 42334 42335    1
 34534 42334 42336    1
 34535 42337 42338    1
 34536 42337 42339    1
 34537 42340 42341    1
 34538 42340 42342    1
 34539 42343 42344    1
 34540 42343 42345    1
 34541 42346 42347    1
 34542 42346 42348    1
 34543 42349 42350    1
 34544 42349 42351    1
 34545 42352 42353    1
 34546 42352 42354    1
 34547 42355 42356    1
 34548 42355 42357    1
 34549 42358 42359    1
 34550 42358 42360    1
 34551 42361 42362    1
 34552 42361 42363    1
 34553 42364 42365    1
 34554 42364 42366    1
 34555 42367 42368    1
 34556 42367 42369    1
 34557 42370 42371    1
 34558 42370 42372    1
 34559 42373 42374    1
 34560 42373 42375    1
 34561 42376 42377    1
 34562 42376 42378    1
 34563 42379 42380    1
 34564 42379 42381    1
 34565 42382 42383    1
 34566 42382 42384    1
 34567 42385 42386    1
 34568 42385 42387    1
 34569 42388 42389    1
 34570 42388 42390    1
 34571 42391 42392    1
 34572 42391 42393    1
 34573 42394 42395    1
 34574 42394 42396    1
 34575 42397 42398    1
 34576 42397 42399    1
 34577 42400 42401    1
 34578 42400 42402    1
 34579 42403 42404    1
 34580 42403 42405    1
 34581 42406 42407    1
 34582 42406 42408    1
 34583 42409 42410    1
 34584 42409 42411    1
 34585 42412 42413    1
 34586 42412 42414    1
 34587 42415 42416    1
 34588 42415 42417    1
 34589 42418 42419    1
 34590 42418 42420    1
 34591 42421 42422    1
 34592 42421 42423    1
 34593 42424 42425    1
 34594 42424 42426    1
 34595 42427 42428    1
 34596 42427 42429    1
 34597 42430 42431    1
 34598 42430 42432    1
 34599 42433 42434    1
 34600 42433 42435    1
 34601 42436 42437    1
 34602 42436 42438    1
 34603 42439 42440    1
 34604 42439 42441    1
 34605 42442 42443    1
 34606 42442 42444    1
 34607 42445 42446    1
 34608 42445 42447    1
 34609 42448 42449    1
 34610 42448 42450    1
 34611 42451 42452    1
 34612 42451 42453    1
 34613 42454 42455    1
 34614 42454 42456    1
 34615 42457 42458    1
 34616 42457 42459    1
 34617 42460 42461    1
 34618 42460 42462    1
 34619 42463 42464    1
 34620 42463 42465    1
 34621 42466 42467    1
 34622 42466 42468    1
 34623 42469 42470    1
 34624 42469 42471    1
 34625 42472 42473    1
 34626 42472 42474    1
 34627 42475 42476    1
 34628 42475 42477    1
 34629 42478 42479    1
 34630 42478 42480    1
 34631 42481 42482    1
 34632 42481 42483    1
 34633 42484 42485    1
 34634 42484 42486    1
 34635 42487 42488    1
 34636 42487 42489    1
 34637 42490 42491    1
 34638 42490 42492    1
 34639 42493 42494    1
 34640 42493 42495    1
 34641 42496 42497    1
 34642 42496 42498    1
 34643 42499 42500    1
 34644 42499 42501    1
 34645 42502 42503    1
 34646 42502 42504    1
 34647 42505 42506    1
 34648 42505 42507    1
 34649 42508 42509    1
 34650 42508 42510    1
 34651 42511 42512    1
 34652 42511 42513    1
 34653 42514 42515    1
 34654 42514 42516    1
 34655 42517 42518    1
 34656 42517 42519    1
 34657 42520 42521    1
 34658 42520 42522    1
 34659 42523 42524    1
 34660 42523 42525    1
 34661 42526 42527    1
 34662 42526 42528    1
 34663 42529 42530    1
 34664 42529 42531    1
 34665 42532 42533    1
 34666 42532 42534    1
 34667 42535 42536    1
 34668 42535 42537    1
 34669 42538 42539    1
 34670 42538 42540    1
 34671 42541 42542    1
 34672 42541 42543    1
 34673 42544 42545    1
 34674 42544 42546    1
 34675 42547 42548    1
 34676 42547 42549    1
 34677 42550 42551    1
 34678 42550 42552    1
 34679 42553 42554    1
 34680 42553 42555    1
 34681 42556 42557    1
 34682 42556 42558    1
 34683 42559 42560    1
 34684 42559 42561    1
 34685 42562 42563    1
 34686 42562 42564    1
 34687 42565 42566    1
 34688 42565 42567    1
 34689 42568 42569    1
 34690 42568 42570    1
 34691 42571 42572    1
 34692 42571 42573    1
 34693 42574 42575    1
 34694 42574 42576    1
 34695 42577 42578    1
 34696 42577 42579    1
 34697 42580 42581    1
 34698 42580 42582    1
 34699 42583 42584    1
 34700 42583 42585    1
 34701 42586 42587    1
 34702 42586 42588    1
 34703 42589 42590    1
 34704 42589 42591    1
 34705 42592 42593    1
 34706 42592 42594    1
 34707 42595 42596    1
 34708 42595 42597    1
 34709 42598 42599    1
 34710 42598 42600    1
 34711 42601 42602    1
 34712 42601 42603    1
 34713 42604 42605    1
 34714 42604 42606    1
 34715 42607 42608    1
 34716 42607 42609    1
 34717 42610 42611    1
 34718 42610 42612    1
 34719 42613 42614    1
 34720 42613 42615    1
 34721 42616 42617    1
 34722 42616 42618    1
 34723 42619 42620    1
 34724 42619 42621    1
 34725 42622 42623    1
 34726 42622 42624    1
 34727 42625 42626    1
 34728 42625 42627    1
 34729 42628 42629    1
 34730 42628 42630    1
 34731 42631 42632    1
 34732 42631 42633    1
 34733 42634 42635    1
 34734 42634 42636    1
 34735 42637 42638    1
 34736 42637 42639    1
 34737 42640 42641    1
 34738 42640 42642    1
 34739 42643 42644    1
 34740 42643 42645    1
 34741 42646 42647    1
 34742 42646 42648    1
 34743 42649 42650    1
 34744 42649 42651    1
 34745 42652 42653    1
 34746 42652 42654    1
 34747 42655 42656    1
 34748 42655 42657    1
 34749 42658 42659    1
 34750 42658 42660    1
 34751 42661 42662    1
 34752 42661 42663    1
 34753 42664 42665    1
 34754 42664 42666    1
 34755 42667 42668    1
 34756 42667 42669    1
 34757 42670 42671    1
 34758 42670 42672    1
 34759 42673 42674    1
 34760 42673 42675    1
 34761 42676 42677    1
 34762 42676 42678    1
 34763 42679 42680    1
 34764 42679 42681    1
 34765 42682 42683    1
 34766 42682 42684    1
 34767 42685 42686    1
 34768 42685 42687    1
 34769 42688 42689    1
 34770 42688 42690    1
 34771 42691 42692    1
 34772 42691 42693    1
 34773 42694 42695    1
 34774 42694 42696    1
 34775 42697 42698    1
 34776 42697 42699    1
 34777 42700 42701    1
 34778 42700 42702    1
 34779 42703 42704    1
 34780 42703 42705    1
 34781 42706 42707    1
 34782 42706 42708    1
 34783 42709 42710    1
 34784 42709 42711    1
 34785 42712 42713    1
 34786 42712 42714    1
 34787 42715 42716    1
 34788 42715 42717    1
 34789 42718 42719    1
 34790 42718 42720    1
 34791 42721 42722    1
 34792 42721 42723    1
 34793 42724 42725    1
 34794 42724 42726    1
 34795 42727 42728    1
 34796 42727 42729    1
 34797 42730 42731    1
 34798 42730 42732    1
 34799 42733 42734    1
 34800 42733 42735    1
 34801 42736 42737    1
 34802 42736 42738    1
 34803 42739 42740    1
 34804 42739 42741    1
 34805 42742 42743    1
 34806 42742 42744    1
 34807 42745 42746    1
 34808 42745 42747    1
 34809 42748 42749    1
 34810 42748 42750    1
 34811 42751 42752    1
 34812 42751 42753    1
 34813 42754 42755    1
 34814 42754 42756    1
 34815 42757 42758    1
 34816 42757 42759    1
 34817 42760 42761    1
 34818 42760 42762    1
 34819 42763 42764    1
 34820 42763 42765    1
 34821 42766 42767    1
 34822 42766 42768    1
 34823 42769 42770    1
 34824 42769 42771    1
 34825 42772 42773    1
 34826 42772 42774    1
 34827 42775 42776    1
 34828 42775 42777    1
 34829 42778 42779    1
 34830 42778 42780    1
 34831 42781 42782    1
 34832 42781 42783    1
 34833 42784 42785    1
 34834 42784 42786    1
 34835 42787 42788    1
 34836 42787 42789    1
 34837 42790 42791    1
 34838 42790 42792    1
 34839 42793 42794    1
 34840 42793 42795    1
 34841 42796 42797    1
 34842 42796 42798    1
 34843 42799 42800    1
 34844 42799 42801    1
 34845 42802 42803    1
 34846 42802 42804    1
 34847 42805 42806    1
 34848 42805 42807    1
 34849 42808 42809    1
 34850 42808 42810    1
 34851 42811 42812    1
 34852 42811 42813    1
 34853 42814 42815    1
 34854 42814 42816    1
 34855 42817 42818    1
 34856 42817 42819    1
 34857 42820 42821    1
 34858 42820 42822    1
 34859 42823 42824    1
 34860 42823 42825    1
 34861 42826 42827    1
 34862 42826 42828    1
 34863 42829 42830    1
 34864 42829 42831    1
 34865 42832 42833    1
 34866 42832 42834    1
 34867 42835 42836    1
 34868 42835 42837    1
 34869 42838 42839    1
 34870 42838 42840    1
 34871 42841 42842    1
 34872 42841 42843    1
 34873 42844 42845    1
 34874 42844 42846    1
 34875 42847 42848    1
 34876 42847 42849    1
 34877 42850 42851    1
 34878 42850 42852    1
 34879 42853 42854    1
 34880 42853 42855    1
 34881 42856 42857    1
 34882 42856 42858    1
 34883 42859 42860    1
 34884 42859 42861    1
 34885 42862 42863    1
 34886 42862 42864    1
 34887 42865 42866    1
 34888 42865 42867    1
 34889 42868 42869    1
 34890 42868 42870    1
 34891 42871 42872    1
 34892 42871 42873    1
 34893 42874 42875    1
 34894 42874 42876    1
 34895 42877 42878    1
 34896 42877 42879    1
 34897 42880 42881    1
 34898 42880 42882    1
 34899 42883 42884    1
 34900 42883 42885    1
 34901 42886 42887    1
 34902 42886 42888    1
 34903 42889 42890    1
 34904 42889 42891    1
 34905 42892 42893    1
 34906 42892 42894    1
 34907 42895 42896    1
 34908 42895 42897    1
 34909 42898 42899    1
 34910 42898 42900    1
 34911 42901 42902    1
 34912 42901 42903    1
 34913 42904 42905    1
 34914 42904 42906    1
 34915 42907 42908    1
 34916 42907 42909    1
 34917 42910 42911    1
 34918 42910 42912    1
 34919 42913 42914    1
 34920 42913 42915    1
 34921 42916 42917    1
 34922 42916 42918    1
 34923 42919 42920    1
 34924 42919 42921    1
 34925 42922 42923    1
 34926 42922 42924    1
 34927 42925 42926    1
 34928 42925 42927    1
 34929 42928 42929    1
 34930 42928 42930    1
 34931 42931 42932    1
 34932 42931 42933    1
 34933 42934 42935    1
 34934 42934 42936    1
 34935 42937 42938    1
 34936 42937 42939    1
 34937 42940 42941    1
 34938 42940 42942    1
 34939 42943 42944    1
 34940 42943 42945    1
 34941 42946 42947    1
 34942 42946 42948    1
 34943 42949 42950    1
 34944 42949 42951    1
 34945 42952 42953    1
 34946 42952 42954    1
 34947 42955 42956    1
 34948 42955 42957    1
 34949 42958 42959    1
 34950 42958 42960    1
 34951 42961 42962    1
 34952 42961 42963    1
 34953 42964 42965    1
 34954 42964 42966    1
 34955 42967 42968    1
 34956 42967 42969    1
 34957 42970 42971    1
 34958 42970 42972    1
 34959 42973 42974    1
 34960 42973 42975    1
 34961 42976 42977    1
 34962 42976 42978    1
 34963 42979 42980    1
 34964 42979 42981    1
 34965 42982 42983    1
 34966 42982 42984    1
 34967 42985 42986    1
 34968 42985 42987    1
 34969 42988 42989    1
 34970 42988 42990    1
 34971 42991 42992    1
 34972 42991 42993    1
 34973 42994 42995    1
 34974 42994 42996    1
 34975 42997 42998    1
 34976 42997 42999    1
 34977 43000 43001    1
 34978 43000 43002    1
 34979 43003 43004    1
 34980 43003 43005    1
 34981 43006 43007    1
 34982 43006 43008    1
 34983 43009 43010    1
 34984 43009 43011    1
 34985 43012 43013    1
 34986 43012 43014    1
 34987 43015 43016    1
 34988 43015 43017    1
 34989 43018 43019    1
 34990 43018 43020    1
 34991 43021 43022    1
 34992 43021 43023    1
 34993 43024 43025    1
 34994 43024 43026    1
 34995 43027 43028    1
 34996 43027 43029    1
 34997 43030 43031    1
 34998 43030 43032    1
 34999 43033 43034    1
 35000 43033 43035    1
 35001 43036 43037    1
 35002 43036 43038    1
 35003 43039 43040    1
 35004 43039 43041    1
 35005 43042 43043    1
 35006 43042 43044    1
 35007 43045 43046    1
 35008 43045 43047    1
 35009 43048 43049    1
 35010 43048 43050    1
 35011 43051 43052    1
 35012 43051 43053    1
 35013 43054 43055    1
 35014 43054 43056    1
 35015 43057 43058    1
 35016 43057 43059    1
 35017 43060 43061    1
 35018 43060 43062    1
 35019 43063 43064    1
 35020 43063 43065    1
 35021 43066 43067    1
 35022 43066 43068    1
 35023 43069 43070    1
 35024 43069 43071    1
 35025 43072 43073    1
 35026 43072 43074    1
 35027 43075 43076    1
 35028 43075 43077    1
 35029 43078 43079    1
 35030 43078 43080    1
 35031 43081 43082    1
 35032 43081 43083    1
 35033 43084 43085    1
 35034 43084 43086    1
 35035 43087 43088    1
 35036 43087 43089    1
 35037 43090 43091    1
 35038 43090 43092    1
 35039 43093 43094    1
 35040 43093 43095    1
 35041 43096 43097    1
 35042 43096 43098    1
 35043 43099 43100    1
 35044 43099 43101    1
 35045 43102 43103    1
 35046 43102 43104    1
 35047 43105 43106    1
 35048 43105 43107    1
 35049 43108 43109    1
 35050 43108 43110    1
 35051 43111 43112    1
 35052 43111 43113    1
 35053 43114 43115    1
 35054 43114 43116    1
 35055 43117 43118    1
 35056 43117 43119    1
 35057 43120 43121    1
 35058 43120 43122    1
 35059 43123 43124    1
 35060 43123 43125    1
 35061 43126 43127    1
 35062 43126 43128    1
 35063 43129 43130    1
 35064 43129 43131    1
 35065 43132 43133    1
 35066 43132 43134    1
 35067 43135 43136    1
 35068 43135 43137    1
 35069 43138 43139    1
 35070 43138 43140    1
 35071 43141 43142    1
 35072 43141 43143    1
 35073 43144 43145    1
 35074 43144 43146    1
 35075 43147 43148    1
 35076 43147 43149    1
 35077 43150 43151    1
 35078 43150 43152    1
 35079 43153 43154    1
 35080 43153 43155    1
 35081 43156 43157    1
 35082 43156 43158    1
 35083 43159 43160    1
 35084 43159 43161    1
 35085 43162 43163    1
 35086 43162 43164    1
 35087 43165 43166    1
 35088 43165 43167    1
 35089 43168 43169    1
 35090 43168 43170    1
 35091 43171 43172    1
 35092 43171 43173    1
 35093 43174 43175    1
 35094 43174 43176    1
 35095 43177 43178    1
 35096 43177 43179    1
 35097 43180 43181    1
 35098 43180 43182    1
 35099 43183 43184    1
 35100 43183 43185    1
 35101 43186 43187    1
 35102 43186 43188    1
 35103 43189 43190    1
 35104 43189 43191    1
 35105 43192 43193    1
 35106 43192 43194    1
 35107 43195 43196    1
 35108 43195 43197    1
 35109 43198 43199    1
 35110 43198 43200    1
 35111 43201 43202    1
 35112 43201 43203    1
 35113 43204 43205    1
 35114 43204 43206    1
 35115 43207 43208    1
 35116 43207 43209    1
 35117 43210 43211    1
 35118 43210 43212    1
 35119 43213 43214    1
 35120 43213 43215    1
 35121 43216 43217    1
 35122 43216 43218    1
 35123 43219 43220    1
 35124 43219 43221    1
 35125 43222 43223    1
 35126 43222 43224    1
 35127 43225 43226    1
 35128 43225 43227    1
 35129 43228 43229    1
 35130 43228 43230    1
 35131 43231 43232    1
 35132 43231 43233    1
 35133 43234 43235    1
 35134 43234 43236    1
 35135 43237 43238    1
 35136 43237 43239    1
 35137 43240 43241    1
 35138 43240 43242    1
 35139 43243 43244    1
 35140 43243 43245    1
 35141 43246 43247    1
 35142 43246 43248    1
 35143 43249 43250    1
 35144 43249 43251    1
 35145 43252 43253    1
 35146 43252 43254    1
 35147 43255 43256    1
 35148 43255 43257    1
 35149 43258 43259    1
 35150 43258 43260    1
 35151 43261 43262    1
 35152 43261 43263    1
 35153 43264 43265    1
 35154 43264 43266    1
 35155 43267 43268    1
 35156 43267 43269    1
 35157 43270 43271    1
 35158 43270 43272    1
 35159 43273 43274    1
 35160 43273 43275    1
 35161 43276 43277    1
 35162 43276 43278    1
 35163 43279 43280    1
 35164 43279 43281    1
 35165 43282 43283    1
 35166 43282 43284    1
 35167 43285 43286    1
 35168 43285 43287    1
 35169 43288 43289    1
 35170 43288 43290    1
 35171 43291 43292    1
 35172 43291 43293    1
 35173 43294 43295    1
 35174 43294 43296    1
 35175 43297 43298    1
 35176 43297 43299    1
 35177 43300 43301    1
 35178 43300 43302    1
 35179 43303 43304    1
 35180 43303 43305    1
 35181 43306 43307    1
 35182 43306 43308    1
 35183 43309 43310    1
 35184 43309 43311    1
 35185 43312 43313    1
 35186 43312 43314    1
 35187 43315 43316    1
 35188 43315 43317    1
 35189 43318 43319    1
 35190 43318 43320    1
 35191 43321 43322    1
 35192 43321 43323    1
 35193 43324 43325    1
 35194 43324 43326    1
 35195 43327 43328    1
 35196 43327 43329    1
 35197 43330 43331    1
 35198 43330 43332    1
 35199 43333 43334    1
 35200 43333 43335    1
 35201 43336 43337    1
 35202 43336 43338    1
 35203 43339 43340    1
 35204 43339 43341    1
 35205 43342 43343    1
 35206 43342 43344    1
 35207 43345 43346    1
 35208 43345 43347    1
 35209 43348 43349    1
 35210 43348 43350    1
 35211 43351 43352    1
 35212 43351 43353    1
 35213 43354 43355    1
 35214 43354 43356    1
 35215 43357 43358    1
 35216 43357 43359    1
 35217 43360 43361    1
 35218 43360 43362    1
 35219 43363 43364    1
 35220 43363 43365    1
 35221 43366 43367    1
 35222 43366 43368    1
 35223 43369 43370    1
 35224 43369 43371    1
 35225 43372 43373    1
 35226 43372 43374    1
 35227 43375 43376    1
 35228 43375 43377    1
 35229 43378 43379    1
 35230 43378 43380    1
 35231 43381 43382    1
 35232 43381 43383    1
 35233 43384 43385    1
 35234 43384 43386    1
 35235 43387 43388    1
 35236 43387 43389    1
 35237 43390 43391    1
 35238 43390 43392    1
 35239 43393 43394    1
 35240 43393 43395    1
 35241 43396 43397    1
 35242 43396 43398    1
 35243 43399 43400    1
 35244 43399 43401    1
 35245 43402 43403    1
 35246 43402 43404    1
 35247 43405 43406    1
 35248 43405 43407    1
 35249 43408 43409    1
 35250 43408 43410    1
 35251 43411 43412    1
 35252 43411 43413    1
 35253 43414 43415    1
 35254 43414 43416    1
 35255 43417 43418    1
 35256 43417 43419    1
 35257 43420 43421    1
 35258 43420 43422    1
 35259 43423 43424    1
 35260 43423 43425    1
 35261 43426 43427    1
 35262 43426 43428    1
 35263 43429 43430    1
 35264 43429 43431    1
 35265 43432 43433    1
 35266 43432 43434    1
 35267 43435 43436    1
 35268 43435 43437    1
 35269 43438 43439    1
 35270 43438 43440    1
 35271 43441 43442    1
 35272 43441 43443    1
 35273 43444 43445    1
 35274 43444 43446    1
 35275 43447 43448    1
 35276 43447 43449    1
 35277 43450 43451    1
 35278 43450 43452    1
 35279 43453 43454    1
 35280 43453 43455    1
 35281 43456 43457    1
 35282 43456 43458    1
 35283 43459 43460    1
 35284 43459 43461    1
 35285 43462 43463    1
 35286 43462 43464    1
 35287 43465 43466    1
 35288 43465 43467    1
 35289 43468 43469    1
 35290 43468 43470    1
 35291 43471 43472    1
 35292 43471 43473    1
 35293 43474 43475    1
 35294 43474 43476    1
 35295 43477 43478    1
 35296 43477 43479    1
 35297 43480 43481    1
 35298 43480 43482    1
 35299 43483 43484    1
 35300 43483 43485    1
 35301 43486 43487    1
 35302 43486 43488    1
 35303 43489 43490    1
 35304 43489 43491    1
 35305 43492 43493    1
 35306 43492 43494    1
 35307 43495 43496    1
 35308 43495 43497    1
 35309 43498 43499    1
 35310 43498 43500    1
 35311 43501 43502    1
 35312 43501 43503    1
 35313 43504 43505    1
 35314 43504 43506    1
 35315 43507 43508    1
 35316 43507 43509    1
 35317 43510 43511    1
 35318 43510 43512    1
 35319 43513 43514    1
 35320 43513 43515    1
 35321 43516 43517    1
 35322 43516 43518    1
 35323 43519 43520    1
 35324 43519 43521    1
 35325 43522 43523    1
 35326 43522 43524    1
 35327 43525 43526    1
 35328 43525 43527    1
 35329 43528 43529    1
 35330 43528 43530    1
 35331 43531 43532    1
 35332 43531 43533    1
 35333 43534 43535    1
 35334 43534 43536    1
 35335 43537 43538    1
 35336 43537 43539    1
 35337 43540 43541    1
 35338 43540 43542    1
 35339 43543 43544    1
 35340 43543 43545    1
 35341 43546 43547    1
 35342 43546 43548    1
 35343 43549 43550    1
 35344 43549 43551    1
 35345 43552 43553    1
 35346 43552 43554    1
 35347 43555 43556    1
 35348 43555 43557    1
 35349 43558 43559    1
 35350 43558 43560    1
 35351 43561 43562    1
 35352 43561 43563    1
 35353 43564 43565    1
 35354 43564 43566    1
 35355 43567 43568    1
 35356 43567 43569    1
 35357 43570 43571    1
 35358 43570 43572    1
 35359 43573 43574    1
 35360 43573 43575    1
 35361 43576 43577    1
 35362 43576 43578    1
 35363 43579 43580    1
 35364 43579 43581    1
 35365 43582 43583    1
 35366 43582 43584    1
 35367 43585 43586    1
 35368 43585 43587    1
 35369 43588 43589    1
 35370 43588 43590    1
 35371 43591 43592    1
 35372 43591 43593    1
 35373 43594 43595    1
 35374 43594 43596    1
 35375 43597 43598    1
 35376 43597 43599    1
 35377 43600 43601    1
 35378 43600 43602    1
 35379 43603 43604    1
 35380 43603 43605    1
 35381 43606 43607    1
 35382 43606 43608    1
 35383 43609 43610    1
 35384 43609 43611    1
 35385 43612 43613    1
 35386 43612 43614    1
 35387 43615 43616    1
 35388 43615 43617    1
 35389 43618 43619    1
 35390 43618 43620    1
 35391 43621 43622    1
 35392 43621 43623    1
 35393 43624 43625    1
 35394 43624 43626    1
 35395 43627 43628    1
 35396 43627 43629    1
 35397 43630 43631    1
 35398 43630 43632    1
 35399 43633 43634    1
 35400 43633 43635    1
 35401 43636 43637    1
 35402 43636 43638    1
 35403 43639 43640    1
 35404 43639 43641    1
 35405 43642 43643    1
 35406 43642 43644    1
 35407 43645 43646    1
 35408 43645 43647    1
 35409 43648 43649    1
 35410 43648 43650    1
 35411 43651 43652    1
 35412 43651 43653    1
 35413 43654 43655    1
 35414 43654 43656    1
 35415 43657 43658    1
 35416 43657 43659    1
 35417 43660 43661    1
 35418 43660 43662    1
 35419 43663 43664    1
 35420 43663 43665    1
 35421 43666 43667    1
 35422 43666 43668    1
 35423 43669 43670    1
 35424 43669 43671    1
 35425 43672 43673    1
 35426 43672 43674    1
 35427 43675 43676    1
 35428 43675 43677    1
 35429 43678 43679    1
 35430 43678 43680    1
 35431 43681 43682    1
 35432 43681 43683    1
 35433 43684 43685    1
 35434 43684 43686    1
 35435 43687 43688    1
 35436 43687 43689    1
 35437 43690 43691    1
 35438 43690 43692    1
 35439 43693 43694    1
 35440 43693 43695    1
 35441 43696 43697    1
 35442 43696 43698    1
 35443 43699 43700    1
 35444 43699 43701    1
 35445 43702 43703    1
 35446 43702 43704    1
 35447 43705 43706    1
 35448 43705 43707    1
 35449 43708 43709    1
 35450 43708 43710    1
 35451 43711 43712    1
 35452 43711 43713    1
 35453 43714 43715    1
 35454 43714 43716    1
 35455 43717 43718    1
 35456 43717 43719    1
 35457 43720 43721    1
 35458 43720 43722    1
 35459 43723 43724    1
 35460 43723 43725    1
 35461 43726 43727    1
 35462 43726 43728    1
 35463 43729 43730    1
 35464 43729 43731    1
 35465 43732 43733    1
 35466 43732 43734    1
 35467 43735 43736    1
 35468 43735 43737    1
 35469 43738 43739    1
 35470 43738 43740    1
 35471 43741 43742    1
 35472 43741 43743    1
 35473 43744 43745    1
 35474 43744 43746    1
 35475 43747 43748    1
 35476 43747 43749    1
 35477 43750 43751    1
 35478 43750 43752    1
 35479 43753 43754    1
 35480 43753 43755    1
 35481 43756 43757    1
 35482 43756 43758    1
 35483 43759 43760    1
 35484 43759 43761    1
 35485 43762 43763    1
 35486 43762 43764    1
 35487 43765 43766    1
 35488 43765 43767    1
 35489 43768 43769    1
 35490 43768 43770    1
 35491 43771 43772    1
 35492 43771 43773    1
 35493 43774 43775    1
 35494 43774 43776    1
 35495 43777 43778    1
 35496 43777 43779    1
 35497 43780 43781    1
 35498 43780 43782    1
 35499 43783 43784    1
 35500 43783 43785    1
 35501 43786 43787    1
 35502 43786 43788    1
 35503 43789 43790    1
 35504 43789 43791    1
 35505 43792 43793    1
 35506 43792 43794    1
 35507 43795 43796    1
 35508 43795 43797    1
 35509 43798 43799    1
 35510 43798 43800    1
 35511 43801 43802    1
 35512 43801 43803    1
 35513 43804 43805    1
 35514 43804 43806    1
 35515 43807 43808    1
 35516 43807 43809    1
 35517 43810 43811    1
 35518 43810 43812    1
 35519 43813 43814    1
 35520 43813 43815    1
 35521 43816 43817    1
 35522 43816 43818    1
 35523 43819 43820    1
 35524 43819 43821    1
 35525 43822 43823    1
 35526 43822 43824    1
 35527 43825 43826    1
 35528 43825 43827    1
 35529 43828 43829    1
 35530 43828 43830    1
 35531 43831 43832    1
 35532 43831 43833    1
 35533 43834 43835    1
 35534 43834 43836    1
 35535 43837 43838    1
 35536 43837 43839    1
 35537 43840 43841    1
 35538 43840 43842    1
 35539 43843 43844    1
 35540 43843 43845    1
 35541 43846 43847    1
 35542 43846 43848    1
 35543 43849 43850    1
 35544 43849 43851    1
 35545 43852 43853    1
 35546 43852 43854    1
 35547 43855 43856    1
 35548 43855 43857    1
 35549 43858 43859    1
 35550 43858 43860    1
 35551 43861 43862    1
 35552 43861 43863    1
 35553 43864 43865    1
 35554 43864 43866    1
 35555 43867 43868    1
 35556 43867 43869    1
 35557 43870 43871    1
 35558 43870 43872    1
 35559 43873 43874    1
 35560 43873 43875    1
 35561 43876 43877    1
 35562 43876 43878    1
 35563 43879 43880    1
 35564 43879 43881    1
 35565 43882 43883    1
 35566 43882 43884    1
 35567 43885 43886    1
 35568 43885 43887    1
 35569 43888 43889    1
 35570 43888 43890    1
 35571 43891 43892    1
 35572 43891 43893    1
 35573 43894 43895    1
 35574 43894 43896    1
 35575 43897 43898    1
 35576 43897 43899    1
 35577 43900 43901    1
 35578 43900 43902    1
 35579 43903 43904    1
 35580 43903 43905    1
 35581 43906 43907    1
 35582 43906 43908    1
 35583 43909 43910    1
 35584 43909 43911    1
 35585 43912 43913    1
 35586 43912 43914    1
 35587 43915 43916    1
 35588 43915 43917    1
 35589 43918 43919    1
 35590 43918 43920    1
 35591 43921 43922    1
 35592 43921 43923    1
 35593 43924 43925    1
 35594 43924 43926    1
 35595 43927 43928    1
 35596 43927 43929    1
 35597 43930 43931    1
 35598 43930 43932    1
 35599 43933 43934    1
 35600 43933 43935    1
 35601 43936 43937    1
 35602 43936 43938    1
 35603 43939 43940    1
 35604 43939 43941    1
 35605 43942 43943    1
 35606 43942 43944    1
 35607 43945 43946    1
 35608 43945 43947    1
 35609 43948 43949    1
 35610 43948 43950    1
 35611 43951 43952    1
 35612 43951 43953    1
 35613 43954 43955    1
 35614 43954 43956    1
 35615 43957 43958    1
 35616 43957 43959    1
 35617 43960 43961    1
 35618 43960 43962    1
 35619 43963 43964    1
 35620 43963 43965    1
 35621 43966 43967    1
 35622 43966 43968    1
 35623 43969 43970    1
 35624 43969 43971    1
 35625 43972 43973    1
 35626 43972 43974    1
 35627 43975 43976    1
 35628 43975 43977    1
 35629 43978 43979    1
 35630 43978 43980    1
 35631 43981 43982    1
 35632 43981 43983    1
 35633 43984 43985    1
 35634 43984 43986    1
 35635 43987 43988    1
 35636 43987 43989    1
 35637 43990 43991    1
 35638 43990 43992    1
 35639 43993 43994    1
 35640 43993 43995    1
 35641 43996 43997    1
 35642 43996 43998    1
 35643 43999 44000    1
 35644 43999 44001    1
 35645 44002 44003    1
 35646 44002 44004    1
 35647 44005 44006    1
 35648 44005 44007    1
 35649 44008 44009    1
 35650 44008 44010    1
 35651 44011 44012    1
 35652 44011 44013    1
 35653 44014 44015    1
 35654 44014 44016    1
 35655 44017 44018    1
 35656 44017 44019    1
 35657 44020 44021    1
 35658 44020 44022    1
 35659 44023 44024    1
 35660 44023 44025    1
 35661 44026 44027    1
 35662 44026 44028    1
 35663 44029 44030    1
 35664 44029 44031    1
 35665 44032 44033    1
 35666 44032 44034    1
 35667 44035 44036    1
 35668 44035 44037    1
 35669 44038 44039    1
 35670 44038 44040    1
 35671 44041 44042    1
 35672 44041 44043    1
 35673 44044 44045    1
 35674 44044 44046    1
 35675 44047 44048    1
 35676 44047 44049    1
 35677 44050 44051    1
 35678 44050 44052    1
 35679 44053 44054    1
 35680 44053 44055    1
 35681 44056 44057    1
 35682 44056 44058    1
 35683 44059 44060    1
 35684 44059 44061    1
 35685 44062 44063    1
 35686 44062 44064    1
 35687 44065 44066    1
 35688 44065 44067    1
 35689 44068 44069    1
 35690 44068 44070    1
 35691 44071 44072    1
 35692 44071 44073    1
 35693 44074 44075    1
 35694 44074 44076    1
 35695 44077 44078    1
 35696 44077 44079    1
 35697 44080 44081    1
 35698 44080 44082    1
 35699 44083 44084    1
 35700 44083 44085    1
 35701 44086 44087    1
 35702 44086 44088    1
 35703 44089 44090    1
 35704 44089 44091    1
 35705 44092 44093    1
 35706 44092 44094    1
 35707 44095 44096    1
 35708 44095 44097    1
 35709 44098 44099    1
 35710 44098 44100    1
 35711 44101 44102    1
 35712 44101 44103    1
 35713 44104 44105    1
 35714 44104 44106    1
 35715 44107 44108    1
 35716 44107 44109    1
 35717 44110 44111    1
 35718 44110 44112    1
 35719 44113 44114    1
 35720 44113 44115    1
 35721 44116 44117    1
 35722 44116 44118    1
 35723 44119 44120    1
 35724 44119 44121    1
 35725 44122 44123    1
 35726 44122 44124    1
 35727 44125 44126    1
 35728 44125 44127    1
 35729 44128 44129    1
 35730 44128 44130    1
 35731 44131 44132    1
 35732 44131 44133    1
 35733 44134 44135    1
 35734 44134 44136    1
 35735 44137 44138    1
 35736 44137 44139    1
 35737 44140 44141    1
 35738 44140 44142    1
 35739 44143 44144    1
 35740 44143 44145    1
 35741 44146 44147    1
 35742 44146 44148    1
 35743 44149 44150    1
 35744 44149 44151    1
 35745 44152 44153    1
 35746 44152 44154    1
 35747 44155 44156    1
 35748 44155 44157    1
 35749 44158 44159    1
 35750 44158 44160    1
 35751 44161 44162    1
 35752 44161 44163    1
 35753 44164 44165    1
 35754 44164 44166    1
 35755 44167 44168    1
 35756 44167 44169    1
 35757 44170 44171    1
 35758 44170 44172    1
 35759 44173 44174    1
 35760 44173 44175    1
 35761 44176 44177    1
 35762 44176 44178    1
 35763 44179 44180    1
 35764 44179 44181    1
 35765 44182 44183    1
 35766 44182 44184    1
 35767 44185 44186    1
 35768 44185 44187    1
 35769 44188 44189    1
 35770 44188 44190    1
 35771 44191 44192    1
 35772 44191 44193    1
 35773 44194 44195    1
 35774 44194 44196    1
 35775 44197 44198    1
 35776 44197 44199    1
 35777 44200 44201    1
 35778 44200 44202    1
 35779 44203 44204    1
 35780 44203 44205    1
 35781 44206 44207    1
 35782 44206 44208    1
 35783 44209 44210    1
 35784 44209 44211    1
 35785 44212 44213    1
 35786 44212 44214    1
 35787 44215 44216    1
 35788 44215 44217    1
 35789 44218 44219    1
 35790 44218 44220    1
 35791 44221 44222    1
 35792 44221 44223    1
 35793 44224 44225    1
 35794 44224 44226    1
 35795 44227 44228    1
 35796 44227 44229    1
 35797 44230 44231    1
 35798 44230 44232    1
 35799 44233 44234    1
 35800 44233 44235    1
 35801 44236 44237    1
 35802 44236 44238    1
 35803 44239 44240    1
 35804 44239 44241    1
 35805 44242 44243    1
 35806 44242 44244    1
 35807 44245 44246    1
 35808 44245 44247    1
 35809 44248 44249    1
 35810 44248 44250    1
 35811 44251 44252    1
 35812 44251 44253    1
 35813 44254 44255    1
 35814 44254 44256    1
 35815 44257 44258    1
 35816 44257 44259    1
 35817 44260 44261    1
 35818 44260 44262    1
 35819 44263 44264    1
 35820 44263 44265    1
 35821 44266 44267    1
 35822 44266 44268    1
 35823 44269 44270    1
 35824 44269 44271    1
 35825 44272 44273    1
 35826 44272 44274    1
 35827 44275 44276    1
 35828 44275 44277    1
 35829 44278 44279    1
 35830 44278 44280    1
 35831 44281 44282    1
 35832 44281 44283    1
 35833 44284 44285    1
 35834 44284 44286    1
 35835 44287 44288    1
 35836 44287 44289    1
 35837 44290 44291    1
 35838 44290 44292    1
 35839 44293 44294    1
 35840 44293 44295    1
 35841 44296 44297    1
 35842 44296 44298    1
 35843 44299 44300    1
 35844 44299 44301    1
 35845 44302 44303    1
 35846 44302 44304    1
 35847 44305 44306    1
 35848 44305 44307    1
 35849 44308 44309    1
 35850 44308 44310    1
 35851 44311 44312    1
 35852 44311 44313    1
 35853 44314 44315    1
 35854 44314 44316    1
 35855 44317 44318    1
 35856 44317 44319    1
 35857 44320 44321    1
 35858 44320 44322    1
 35859 44323 44324    1
 35860 44323 44325    1
 35861 44326 44327    1
 35862 44326 44328    1
 35863 44329 44330    1
 35864 44329 44331    1
 35865 44332 44333    1
 35866 44332 44334    1
 35867 44335 44336    1
 35868 44335 44337    1
 35869 44338 44339    1
 35870 44338 44340    1
 35871 44341 44342    1
 35872 44341 44343    1
 35873 44344 44345    1
 35874 44344 44346    1
 35875 44347 44348    1
 35876 44347 44349    1
 35877 44350 44351    1
 35878 44350 44352    1
 35879 44353 44354    1
 35880 44353 44355    1
 35881 44356 44357    1
 35882 44356 44358    1
 35883 44359 44360    1
 35884 44359 44361    1
 35885 44362 44363    1
 35886 44362 44364    1
 35887 44365 44366    1
 35888 44365 44367    1
 35889 44368 44369    1
 35890 44368 44370    1
 35891 44371 44372    1
 35892 44371 44373    1
 35893 44374 44375    1
 35894 44374 44376    1
 35895 44377 44378    1
 35896 44377 44379    1
 35897 44380 44381    1
 35898 44380 44382    1
 35899 44383 44384    1
 35900 44383 44385    1
 35901 44386 44387    1
 35902 44386 44388    1
 35903 44389 44390    1
 35904 44389 44391    1
 35905 44392 44393    1
 35906 44392 44394    1
 35907 44395 44396    1
 35908 44395 44397    1
 35909 44398 44399    1
 35910 44398 44400    1
 35911 44401 44402    1
 35912 44401 44403    1
 35913 44404 44405    1
 35914 44404 44406    1
 35915 44407 44408    1
 35916 44407 44409    1
 35917 44410 44411    1
 35918 44410 44412    1
 35919 44413 44414    1
 35920 44413 44415    1
 35921 44416 44417    1
 35922 44416 44418    1
 35923 44419 44420    1
 35924 44419 44421    1
 35925 44422 44423    1
 35926 44422 44424    1
 35927 44425 44426    1
 35928 44425 44427    1
 35929 44428 44429    1
 35930 44428 44430    1
 35931 44431 44432    1
 35932 44431 44433    1
 35933 44434 44435    1
 35934 44434 44436    1
 35935 44437 44438    1
 35936 44437 44439    1
 35937 44440 44441    1
 35938 44440 44442    1
 35939 44443 44444    1
 35940 44443 44445    1
 35941 44446 44447    1
 35942 44446 44448    1
 35943 44449 44450    1
 35944 44449 44451    1
 35945 44452 44453    1
 35946 44452 44454    1
 35947 44455 44456    1
 35948 44455 44457    1
 35949 44458 44459    1
 35950 44458 44460    1
 35951 44461 44462    1
 35952 44461 44463    1
 35953 44464 44465    1
 35954 44464 44466    1
 35955 44467 44468    1
 35956 44467 44469    1
 35957 44470 44471    1
 35958 44470 44472    1
 35959 44473 44474    1
 35960 44473 44475    1
 35961 44476 44477    1
 35962 44476 44478    1
 35963 44479 44480    1
 35964 44479 44481    1
 35965 44482 44483    1
 35966 44482 44484    1
 35967 44485 44486    1
 35968 44485 44487    1
 35969 44488 44489    1
 35970 44488 44490    1
 35971 44491 44492    1
 35972 44491 44493    1
 35973 44494 44495    1
 35974 44494 44496    1
 35975 44497 44498    1
 35976 44497 44499    1
 35977 44500 44501    1
 35978 44500 44502    1
 35979 44503 44504    1
 35980 44503 44505    1
 35981 44506 44507    1
 35982 44506 44508    1
 35983 44509 44510    1
 35984 44509 44511    1
 35985 44512 44513    1
 35986 44512 44514    1
 35987 44515 44516    1
 35988 44515 44517    1
 35989 44518 44519    1
 35990 44518 44520    1
 35991 44521 44522    1
 35992 44521 44523    1
 35993 44524 44525    1
 35994 44524 44526    1
 35995 44527 44528    1
 35996 44527 44529    1
 35997 44530 44531    1
 35998 44530 44532    1
 35999 44533 44534    1
 36000 44533 44535    1
 36001 44536 44537    1
 36002 44536 44538    1
 36003 44539 44540    1
 36004 44539 44541    1
 36005 44542 44543    1
 36006 44542 44544    1
 36007 44545 44546    1
 36008 44545 44547    1
 36009 44548 44549    1
 36010 44548 44550    1
 36011 44551 44552    1
 36012 44551 44553    1
 36013 44554 44555    1
 36014 44554 44556    1
 36015 44557 44558    1
 36016 44557 44559    1
 36017 44560 44561    1
 36018 44560 44562    1
 36019 44563 44564    1
 36020 44563 44565    1
 36021 44566 44567    1
 36022 44566 44568    1
 36023 44569 44570    1
 36024 44569 44571    1
 36025 44572 44573    1
 36026 44572 44574    1
 36027 44575 44576    1
 36028 44575 44577    1
 36029 44578 44579    1
 36030 44578 44580    1
 36031 44581 44582    1
 36032 44581 44583    1
 36033 44584 44585    1
 36034 44584 44586    1
 36035 44587 44588    1
 36036 44587 44589    1
 36037 44590 44591    1
 36038 44590 44592    1
 36039 44593 44594    1
 36040 44593 44595    1
 36041 44596 44597    1
 36042 44596 44598    1
 36043 44599 44600    1
 36044 44599 44601    1
 36045 44602 44603    1
 36046 44602 44604    1
 36047 44605 44606    1
 36048 44605 44607    1
 36049 44608 44609    1
 36050 44608 44610    1
 36051 44611 44612    1
 36052 44611 44613    1
 36053 44614 44615    1
 36054 44614 44616    1
 36055 44617 44618    1
 36056 44617 44619    1
 36057 44620 44621    1
 36058 44620 44622    1
 36059 44623 44624    1
 36060 44623 44625    1
 36061 44626 44627    1
 36062 44626 44628    1
 36063 44629 44630    1
 36064 44629 44631    1
 36065 44632 44633    1
 36066 44632 44634    1
 36067 44635 44636    1
 36068 44635 44637    1
 36069 44638 44639    1
 36070 44638 44640    1
 36071 44641 44642    1
 36072 44641 44643    1
 36073 44644 44645    1
 36074 44644 44646    1
 36075 44647 44648    1
 36076 44647 44649    1
 36077 44650 44651    1
 36078 44650 44652    1
 36079 44653 44654    1
 36080 44653 44655    1
 36081 44656 44657    1
 36082 44656 44658    1
 36083 44659 44660    1
 36084 44659 44661    1
 36085 44662 44663    1
 36086 44662 44664    1
 36087 44665 44666    1
 36088 44665 44667    1
 36089 44668 44669    1
 36090 44668 44670    1
 36091 44671 44672    1
 36092 44671 44673    1
 36093 44674 44675    1
 36094 44674 44676    1
 36095 44677 44678    1
 36096 44677 44679    1
 36097 44680 44681    1
 36098 44680 44682    1
 36099 44683 44684    1
 36100 44683 44685    1
 36101 44686 44687    1
 36102 44686 44688    1
 36103 44689 44690    1
 36104 44689 44691    1
 36105 44692 44693    1
 36106 44692 44694    1
 36107 44695 44696    1
 36108 44695 44697    1
 36109 44698 44699    1
 36110 44698 44700    1
 36111 44701 44702    1
 36112 44701 44703    1
 36113 44704 44705    1
 36114 44704 44706    1
 36115 44707 44708    1
 36116 44707 44709    1
 36117 44710 44711    1
 36118 44710 44712    1
 36119 44713 44714    1
 36120 44713 44715    1
 36121 44716 44717    1
 36122 44716 44718    1
 36123 44719 44720    1
 36124 44719 44721    1
 36125 44722 44723    1
 36126 44722 44724    1
 36127 44725 44726    1
 36128 44725 44727    1
 36129 44728 44729    1
 36130 44728 44730    1
 36131 44731 44732    1
 36132 44731 44733    1
 36133 44734 44735    1
 36134 44734 44736    1
 36135 44737 44738    1
 36136 44737 44739    1
 36137 44740 44741    1
 36138 44740 44742    1
 36139 44743 44744    1
 36140 44743 44745    1
 36141 44746 44747    1
 36142 44746 44748    1
 36143 44749 44750    1
 36144 44749 44751    1
 36145 44752 44753    1
 36146 44752 44754    1
 36147 44755 44756    1
 36148 44755 44757    1
 36149 44758 44759    1
 36150 44758 44760    1
 36151 44761 44762    1
 36152 44761 44763    1
 36153 44764 44765    1
 36154 44764 44766    1
 36155 44767 44768    1
 36156 44767 44769    1
 36157 44770 44771    1
 36158 44770 44772    1
 36159 44773 44774    1
 36160 44773 44775    1
 36161 44776 44777    1
 36162 44776 44778    1
 36163 44779 44780    1
 36164 44779 44781    1
 36165 44782 44783    1
 36166 44782 44784    1
 36167 44785 44786    1
 36168 44785 44787    1
 36169 44788 44789    1
 36170 44788 44790    1
 36171 44791 44792    1
 36172 44791 44793    1
 36173 44794 44795    1
 36174 44794 44796    1
 36175 44797 44798    1
 36176 44797 44799    1
 36177 44800 44801    1
 36178 44800 44802    1
 36179 44803 44804    1
 36180 44803 44805    1
 36181 44806 44807    1
 36182 44806 44808    1
 36183 44809 44810    1
 36184 44809 44811    1
 36185 44812 44813    1
 36186 44812 44814    1
 36187 44815 44816    1
 36188 44815 44817    1
 36189 44818 44819    1
 36190 44818 44820    1
 36191 44821 44822    1
 36192 44821 44823    1
 36193 44824 44825    1
 36194 44824 44826    1
 36195 44827 44828    1
 36196 44827 44829    1
 36197 44830 44831    1
 36198 44830 44832    1
 36199 44833 44834    1
 36200 44833 44835    1
 36201 44836 44837    1
 36202 44836 44838    1
 36203 44839 44840    1
 36204 44839 44841    1
 36205 44842 44843    1
 36206 44842 44844    1
 36207 44845 44846    1
 36208 44845 44847    1
 36209 44848 44849    1
 36210 44848 44850    1
 36211 44851 44852    1
 36212 44851 44853    1
 36213 44854 44855    1
 36214 44854 44856    1
 36215 44857 44858    1
 36216 44857 44859    1
 36217 44860 44861    1
 36218 44860 44862    1
 36219 44863 44864    1
 36220 44863 44865    1
 36221 44866 44867    1
 36222 44866 44868    1
 36223 44869 44870    1
 36224 44869 44871    1
 36225 44872 44873    1
 36226 44872 44874    1
 36227 44875 44876    1
 36228 44875 44877    1
 36229 44878 44879    1
 36230 44878 44880    1
 36231 44881 44882    1
 36232 44881 44883    1
 36233 44884 44885    1
 36234 44884 44886    1
 36235 44887 44888    1
 36236 44887 44889    1
 36237 44890 44891    1
 36238 44890 44892    1
 36239 44893 44894    1
 36240 44893 44895    1
 36241 44896 44897    1
 36242 44896 44898    1
 36243 44899 44900    1
 36244 44899 44901    1
 36245 44902 44903    1
 36246 44902 44904    1
 36247 44905 44906    1
 36248 44905 44907    1
 36249 44908 44909    1
 36250 44908 44910    1
 36251 44911 44912    1
 36252 44911 44913    1
 36253 44914 44915    1
 36254 44914 44916    1
 36255 44917 44918    1
 36256 44917 44919    1
 36257 44920 44921    1
 36258 44920 44922    1
 36259 44923 44924    1
 36260 44923 44925    1
 36261 44926 44927    1
 36262 44926 44928    1
 36263 44929 44930    1
 36264 44929 44931    1
 36265 44932 44933    1
 36266 44932 44934    1
 36267 44935 44936    1
 36268 44935 44937    1
 36269 44938 44939    1
 36270 44938 44940    1
 36271 44941 44942    1
 36272 44941 44943    1
 36273 44944 44945    1
 36274 44944 44946    1
 36275 44947 44948    1
 36276 44947 44949    1
 36277 44950 44951    1
 36278 44950 44952    1
 36279 44953 44954    1
 36280 44953 44955    1
 36281 44956 44957    1
 36282 44956 44958    1
 36283 44959 44960    1
 36284 44959 44961    1
 36285 44962 44963    1
 36286 44962 44964    1
 36287 44965 44966    1
 36288 44965 44967    1
 36289 44968 44969    1
 36290 44968 44970    1
 36291 44971 44972    1
 36292 44971 44973    1
 36293 44974 44975    1
 36294 44974 44976    1
 36295 44977 44978    1
 36296 44977 44979    1
 36297 44980 44981    1
 36298 44980 44982    1
 36299 44983 44984    1
 36300 44983 44985    1
 36301 44986 44987    1
 36302 44986 44988    1
 36303 44989 44990    1
 36304 44989 44991    1
 36305 44992 44993    1
 36306 44992 44994    1
 36307 44995 44996    1
 36308 44995 44997    1
 36309 44998 44999    1
 36310 44998 45000    1
 36311 45001 45002    1
 36312 45001 45003    1
 36313 45004 45005    1
 36314 45004 45006    1
 36315 45007 45008    1
 36316 45007 45009    1
 36317 45010 45011    1
 36318 45010 45012    1
 36319 45013 45014    1
 36320 45013 45015    1
 36321 45016 45017    1
 36322 45016 45018    1
 36323 45019 45020    1
 36324 45019 45021    1
 36325 45022 45023    1
 36326 45022 45024    1
 36327 45025 45026    1
 36328 45025 45027    1
 36329 45028 45029    1
 36330 45028 45030    1
 36331 45031 45032    1
 36332 45031 45033    1
 36333 45034 45035    1
 36334 45034 45036    1
 36335 45037 45038    1
 36336 45037 45039    1
 36337 45040 45041    1
 36338 45040 45042    1
 36339 45043 45044    1
 36340 45043 45045    1
 36341 45046 45047    1
 36342 45046 45048    1
 36343 45049 45050    1
 36344 45049 45051    1
 36345 45052 45053    1
 36346 45052 45054    1
 36347 45055 45056    1
 36348 45055 45057    1
 36349 45058 45059    1
 36350 45058 45060    1
 36351 45061 45062    1
 36352 45061 45063    1
 36353 45064 45065    1
 36354 45064 45066    1
 36355 45067 45068    1
 36356 45067 45069    1
 36357 45070 45071    1
 36358 45070 45072    1
 36359 45073 45074    1
 36360 45073 45075    1
 36361 45076 45077    1
 36362 45076 45078    1
 36363 45079 45080    1
 36364 45079 45081    1
 36365 45082 45083    1
 36366 45082 45084    1
 36367 45085 45086    1
 36368 45085 45087    1
 36369 45088 45089    1
 36370 45088 45090    1
 36371 45091 45092    1
 36372 45091 45093    1
 36373 45094 45095    1
 36374 45094 45096    1
 36375 45097 45098    1
 36376 45097 45099    1
 36377 45100 45101    1
 36378 45100 45102    1
 36379 45103 45104    1
 36380 45103 45105    1
 36381 45106 45107    1
 36382 45106 45108    1
 36383 45109 45110    1
 36384 45109 45111    1
 36385 45112 45113    1
 36386 45112 45114    1
 36387 45115 45116    1
 36388 45115 45117    1
 36389 45118 45119    1
 36390 45118 45120    1
 36391 45121 45122    1
 36392 45121 45123    1
 36393 45124 45125    1
 36394 45124 45126    1
 36395 45127 45128    1
 36396 45127 45129    1
 36397 45130 45131    1
 36398 45130 45132    1
 36399 45133 45134    1
 36400 45133 45135    1
 36401 45136 45137    1
 36402 45136 45138    1
 36403 45139 45140    1
 36404 45139 45141    1
 36405 45142 45143    1
 36406 45142 45144    1
 36407 45145 45146    1
 36408 45145 45147    1
 36409 45148 45149    1
 36410 45148 45150    1
 36411 45151 45152    1
 36412 45151 45153    1
 36413 45154 45155    1
 36414 45154 45156    1
 36415 45157 45158    1
 36416 45157 45159    1
 36417 45160 45161    1
 36418 45160 45162    1
 36419 45163 45164    1
 36420 45163 45165    1
 36421 45166 45167    1
 36422 45166 45168    1
 36423 45169 45170    1
 36424 45169 45171    1
 36425 45172 45173    1
 36426 45172 45174    1
 36427 45175 45176    1
 36428 45175 45177    1
 36429 45178 45179    1
 36430 45178 45180    1
 36431 45181 45182    1
 36432 45181 45183    1
 36433 45184 45185    1
 36434 45184 45186    1
 36435 45187 45188    1
 36436 45187 45189    1
 36437 45190 45191    1
 36438 45190 45192    1
 36439 45193 45194    1
 36440 45193 45195    1
 36441 45196 45197    1
 36442 45196 45198    1
 36443 45199 45200    1
 36444 45199 45201    1
 36445 45202 45203    1
 36446 45202 45204    1
 36447 45205 45206    1
 36448 45205 45207    1
 36449 45208 45209    1
 36450 45208 45210    1
 36451 45211 45212    1
 36452 45211 45213    1
 36453 45214 45215    1
 36454 45214 45216    1
 36455 45217 45218    1
 36456 45217 45219    1
 36457 45220 45221    1
 36458 45220 45222    1
 36459 45223 45224    1
 36460 45223 45225    1
 36461 45226 45227    1
 36462 45226 45228    1
 36463 45229 45230    1
 36464 45229 45231    1
 36465 45232 45233    1
 36466 45232 45234    1
 36467 45235 45236    1
 36468 45235 45237    1
 36469 45238 45239    1
 36470 45238 45240    1
 36471 45241 45242    1
 36472 45241 45243    1
 36473 45244 45245    1
 36474 45244 45246    1
 36475 45247 45248    1
 36476 45247 45249    1
 36477 45250 45251    1
 36478 45250 45252    1
 36479 45253 45254    1
 36480 45253 45255    1
 36481 45256 45257    1
 36482 45256 45258    1
 36483 45259 45260    1
 36484 45259 45261    1
 36485 45262 45263    1
 36486 45262 45264    1
 36487 45265 45266    1
 36488 45265 45267    1
 36489 45268 45269    1
 36490 45268 45270    1
 36491 45271 45272    1
 36492 45271 45273    1
 36493 45274 45275    1
 36494 45274 45276    1
 36495 45277 45278    1
 36496 45277 45279    1
 36497 45280 45281    1
 36498 45280 45282    1
 36499 45283 45284    1
 36500 45283 45285    1
 36501 45286 45287    1
 36502 45286 45288    1
 36503 45289 45290    1
 36504 45289 45291    1
 36505 45292 45293    1
 36506 45292 45294    1
 36507 45295 45296    1
 36508 45295 45297    1
 36509 45298 45299    1
 36510 45298 45300    1
 36511 45301 45302    1
 36512 45301 45303    1
 36513 45304 45305    1
 36514 45304 45306    1
 36515 45307 45308    1
 36516 45307 45309    1
 36517 45310 45311    1
 36518 45310 45312    1
 36519 45313 45314    1
 36520 45313 45315    1
 36521 45316 45317    1
 36522 45316 45318    1
 36523 45319 45320    1
 36524 45319 45321    1
 36525 45322 45323    1
 36526 45322 45324    1
 36527 45325 45326    1
 36528 45325 45327    1
 36529 45328 45329    1
 36530 45328 45330    1
 36531 45331 45332    1
 36532 45331 45333    1
 36533 45334 45335    1
 36534 45334 45336    1
 36535 45337 45338    1
 36536 45337 45339    1
 36537 45340 45341    1
 36538 45340 45342    1
 36539 45343 45344    1
 36540 45343 45345    1
 36541 45346 45347    1
 36542 45346 45348    1
 36543 45349 45350    1
 36544 45349 45351    1
 36545 45352 45353    1
 36546 45352 45354    1
 36547 45355 45356    1
 36548 45355 45357    1
 36549 45358 45359    1
 36550 45358 45360    1
 36551 45361 45362    1
 36552 45361 45363    1
 36553 45364 45365    1
 36554 45364 45366    1
 36555 45367 45368    1
 36556 45367 45369    1
 36557 45370 45371    1
 36558 45370 45372    1
 36559 45373 45374    1
 36560 45373 45375    1
 36561 45376 45377    1
 36562 45376 45378    1
 36563 45379 45380    1
 36564 45379 45381    1
 36565 45382 45383    1
 36566 45382 45384    1
 36567 45385 45386    1
 36568 45385 45387    1
 36569 45388 45389    1
 36570 45388 45390    1
 36571 45391 45392    1
 36572 45391 45393    1
 36573 45394 45395    1
 36574 45394 45396    1
 36575 45397 45398    1
 36576 45397 45399    1
 36577 45400 45401    1
 36578 45400 45402    1
 36579 45403 45404    1
 36580 45403 45405    1
 36581 45406 45407    1
 36582 45406 45408    1
 36583 45409 45410    1
 36584 45409 45411    1
 36585 45412 45413    1
 36586 45412 45414    1
 36587 45415 45416    1
 36588 45415 45417    1
 36589 45418 45419    1
 36590 45418 45420    1
 36591 45421 45422    1
 36592 45421 45423    1
 36593 45424 45425    1
 36594 45424 45426    1
 36595 45427 45428    1
 36596 45427 45429    1
 36597 45430 45431    1
 36598 45430 45432    1
 36599 45433 45434    1
 36600 45433 45435    1
 36601 45436 45437    1
 36602 45436 45438    1
 36603 45439 45440    1
 36604 45439 45441    1
 36605 45442 45443    1
 36606 45442 45444    1
 36607 45445 45446    1
 36608 45445 45447    1
 36609 45448 45449    1
 36610 45448 45450    1
 36611 45451 45452    1
 36612 45451 45453    1
 36613 45454 45455    1
 36614 45454 45456    1
 36615 45457 45458    1
 36616 45457 45459    1
 36617 45460 45461    1
 36618 45460 45462    1
 36619 45463 45464    1
 36620 45463 45465    1
 36621 45466 45467    1
 36622 45466 45468    1
 36623 45469 45470    1
 36624 45469 45471    1
 36625 45472 45473    1
 36626 45472 45474    1
 36627 45475 45476    1
 36628 45475 45477    1
 36629 45478 45479    1
 36630 45478 45480    1
 36631 45481 45482    1
 36632 45481 45483    1
 36633 45484 45485    1
 36634 45484 45486    1
 36635 45487 45488    1
 36636 45487 45489    1
 36637 45490 45491    1
 36638 45490 45492    1
 36639 45493 45494    1
 36640 45493 45495    1
 36641 45496 45497    1
 36642 45496 45498    1
 36643 45499 45500    1
 36644 45499 45501    1
 36645 45502 45503    1
 36646 45502 45504    1
 36647 45505 45506    1
 36648 45505 45507    1
 36649 45508 45509    1
 36650 45508 45510    1
 36651 45511 45512    1
 36652 45511 45513    1
 36653 45514 45515    1
 36654 45514 45516    1
 36655 45517 45518    1
 36656 45517 45519    1
 36657 45520 45521    1
 36658 45520 45522    1
 36659 45523 45524    1
 36660 45523 45525    1
 36661 45526 45527    1
 36662 45526 45528    1
 36663 45529 45530    1
 36664 45529 45531    1
 36665 45532 45533    1
 36666 45532 45534    1
 36667 45535 45536    1
 36668 45535 45537    1
 36669 45538 45539    1
 36670 45538 45540    1
 36671 45541 45542    1
 36672 45541 45543    1
 36673 45544 45545    1
 36674 45544 45546    1
 36675 45547 45548    1
 36676 45547 45549    1
 36677 45550 45551    1
 36678 45550 45552    1
 36679 45553 45554    1
 36680 45553 45555    1
 36681 45556 45557    1
 36682 45556 45558    1
 36683 45559 45560    1
 36684 45559 45561    1
 36685 45562 45563    1
 36686 45562 45564    1
 36687 45565 45566    1
 36688 45565 45567    1
 36689 45568 45569    1
 36690 45568 45570    1
 36691 45571 45572    1
 36692 45571 45573    1
 36693 45574 45575    1
 36694 45574 45576    1
 36695 45577 45578    1
 36696 45577 45579    1
 36697 45580 45581    1
 36698 45580 45582    1
 36699 45583 45584    1
 36700 45583 45585    1
 36701 45586 45587    1
 36702 45586 45588    1
 36703 45589 45590    1
 36704 45589 45591    1
 36705 45592 45593    1
 36706 45592 45594    1
 36707 45595 45596    1
 36708 45595 45597    1
 36709 45598 45599    1
 36710 45598 45600    1
 36711 45601 45602    1
 36712 45601 45603    1
 36713 45604 45605    1
 36714 45604 45606    1
 36715 45607 45608    1
 36716 45607 45609    1
 36717 45610 45611    1
 36718 45610 45612    1
 36719 45613 45614    1
 36720 45613 45615    1
 36721 45616 45617    1
 36722 45616 45618    1
 36723 45619 45620    1
 36724 45619 45621    1
 36725 45622 45623    1
 36726 45622 45624    1
 36727 45625 45626    1
 36728 45625 45627    1
 36729 45628 45629    1
 36730 45628 45630    1
 36731 45631 45632    1
 36732 45631 45633    1
 36733 45634 45635    1
 36734 45634 45636    1
 36735 45637 45638    1
 36736 45637 45639    1
 36737 45640 45641    1
 36738 45640 45642    1
 36739 45643 45644    1
 36740 45643 45645    1
 36741 45646 45647    1
 36742 45646 45648    1
 36743 45649 45650    1
 36744 45649 45651    1
 36745 45652 45653    1
 36746 45652 45654    1
 36747 45655 45656    1
 36748 45655 45657    1
 36749 45658 45659    1
 36750 45658 45660    1
 36751 45661 45662    1
 36752 45661 45663    1
 36753 45664 45665    1
 36754 45664 45666    1
 36755 45667 45668    1
 36756 45667 45669    1
 36757 45670 45671    1
 36758 45670 45672    1
 36759 45673 45674    1
 36760 45673 45675    1
 36761 45676 45677    1
 36762 45676 45678    1
 36763 45679 45680    1
 36764 45679 45681    1
 36765 45682 45683    1
 36766 45682 45684    1
 36767 45685 45686    1
 36768 45685 45687    1
 36769 45688 45689    1
 36770 45688 45690    1
 36771 45691 45692    1
 36772 45691 45693    1
 36773 45694 45695    1
 36774 45694 45696    1
 36775 45697 45698    1
 36776 45697 45699    1
 36777 45700 45701    1
 36778 45700 45702    1
 36779 45703 45704    1
 36780 45703 45705    1
 36781 45706 45707    1
 36782 45706 45708    1
 36783 45709 45710    1
 36784 45709 45711    1
 36785 45712 45713    1
 36786 45712 45714    1
 36787 45715 45716    1
 36788 45715 45717    1
 36789 45718 45719    1
 36790 45718 45720    1
 36791 45721 45722    1
 36792 45721 45723    1
 36793 45724 45725    1
 36794 45724 45726    1
 36795 45727 45728    1
 36796 45727 45729    1
 36797 45730 45731    1
 36798 45730 45732    1
 36799 45733 45734    1
 36800 45733 45735    1
 36801 45736 45737    1
 36802 45736 45738    1
 36803 45739 45740    1
 36804 45739 45741    1
 36805 45742 45743    1
 36806 45742 45744    1
 36807 45745 45746    1
 36808 45745 45747    1
 36809 45748 45749    1
 36810 45748 45750    1
 36811 45751 45752    1
 36812 45751 45753    1
 36813 45754 45755    1
 36814 45754 45756    1
 36815 45757 45758    1
 36816 45757 45759    1
 36817 45760 45761    1
 36818 45760 45762    1
 36819 45763 45764    1
 36820 45763 45765    1
 36821 45766 45767    1
 36822 45766 45768    1
 36823 45769 45770    1
 36824 45769 45771    1
 36825 45772 45773    1
 36826 45772 45774    1
 36827 45775 45776    1
 36828 45775 45777    1
 36829 45778 45779    1
 36830 45778 45780    1
 36831 45781 45782    1
 36832 45781 45783    1
 36833 45784 45785    1
 36834 45784 45786    1
 36835 45787 45788    1
 36836 45787 45789    1
 36837 45790 45791    1
 36838 45790 45792    1
 36839 45793 45794    1
 36840 45793 45795    1
 36841 45796 45797    1
 36842 45796 45798    1
 36843 45799 45800    1
 36844 45799 45801    1
 36845 45802 45803    1
 36846 45802 45804    1
 36847 45805 45806    1
 36848 45805 45807    1
 36849 45808 45809    1
 36850 45808 45810    1
 36851 45811 45812    1
 36852 45811 45813    1
 36853 45814 45815    1
 36854 45814 45816    1
 36855 45817 45818    1
 36856 45817 45819    1
 36857 45820 45821    1
 36858 45820 45822    1
 36859 45823 45824    1
 36860 45823 45825    1
 36861 45826 45827    1
 36862 45826 45828    1
 36863 45829 45830    1
 36864 45829 45831    1
 36865 45832 45833    1
 36866 45832 45834    1
 36867 45835 45836    1
 36868 45835 45837    1
 36869 45838 45839    1
 36870 45838 45840    1
 36871 45841 45842    1
 36872 45841 45843    1
 36873 45844 45845    1
 36874 45844 45846    1
 36875 45847 45848    1
 36876 45847 45849    1
 36877 45850 45851    1
 36878 45850 45852    1
 36879 45853 45854    1
 36880 45853 45855    1
 36881 45856 45857    1
 36882 45856 45858    1
 36883 45859 45860    1
 36884 45859 45861    1
 36885 45862 45863    1
 36886 45862 45864    1
 36887 45865 45866    1
 36888 45865 45867    1
 36889 45868 45869    1
 36890 45868 45870    1
 36891 45871 45872    1
 36892 45871 45873    1
 36893 45874 45875    1
 36894 45874 45876    1
 36895 45877 45878    1
 36896 45877 45879    1
 36897 45880 45881    1
 36898 45880 45882    1
 36899 45883 45884    1
 36900 45883 45885    1
 36901 45886 45887    1
 36902 45886 45888    1
 36903 45889 45890    1
 36904 45889 45891    1
 36905 45892 45893    1
 36906 45892 45894    1
 36907 45895 45896    1
 36908 45895 45897    1
 36909 45898 45899    1
 36910 45898 45900    1
 36911 45901 45902    1
 36912 45901 45903    1
 36913 45904 45905    1
 36914 45904 45906    1
 36915 45907 45908    1
 36916 45907 45909    1
 36917 45910 45911    1
 36918 45910 45912    1
 36919 45913 45914    1
 36920 45913 45915    1
 36921 45916 45917    1
 36922 45916 45918    1
 36923 45919 45920    1
 36924 45919 45921    1
 36925 45922 45923    1
 36926 45922 45924    1
 36927 45925 45926    1
 36928 45925 45927    1
 36929 45928 45929    1
 36930 45928 45930    1
 36931 45931 45932    1
 36932 45931 45933    1
 36933 45934 45935    1
 36934 45934 45936    1
 36935 45937 45938    1
 36936 45937 45939    1
 36937 45940 45941    1
 36938 45940 45942    1
 36939 45943 45944    1
 36940 45943 45945    1
 36941 45946 45947    1
 36942 45946 45948    1
 36943 45949 45950    1
 36944 45949 45951    1
 36945 45952 45953    1
 36946 45952 45954    1
 36947 45955 45956    1
 36948 45955 45957    1
 36949 45958 45959    1
 36950 45958 45960    1
 36951 45961 45962    1
 36952 45961 45963    1
 36953 45964 45965    1
 36954 45964 45966    1
 36955 45967 45968    1
 36956 45967 45969    1
 36957 45970 45971    1
 36958 45970 45972    1
 36959 45973 45974    1
 36960 45973 45975    1
 36961 45976 45977    1
 36962 45976 45978    1
 36963 45979 45980    1
 36964 45979 45981    1
 36965 45982 45983    1
 36966 45982 45984    1
 36967 45985 45986    1
 36968 45985 45987    1
 36969 45988 45989    1
 36970 45988 45990    1
 36971 45991 45992    1
 36972 45991 45993    1
 36973 45994 45995    1
 36974 45994 45996    1
 36975 45997 45998    1
 36976 45997 45999    1
 36977 46000 46001    1
 36978 46000 46002    1
 36979 46003 46004    1
 36980 46003 46005    1
 36981 46006 46007    1
 36982 46006 46008    1
 36983 46009 46010    1
 36984 46009 46011    1
 36985 46012 46013    1
 36986 46012 46014    1
 36987 46015 46016    1
 36988 46015 46017    1
 36989 46018 46019    1
 36990 46018 46020    1
 36991 46021 46022    1
 36992 46021 46023    1
 36993 46024 46025    1
 36994 46024 46026    1
 36995 46027 46028    1
 36996 46027 46029    1
 36997 46030 46031    1
 36998 46030 46032    1
 36999 46033 46034    1
 37000 46033 46035    1
 37001 46036 46037    1
 37002 46036 46038    1
 37003 46039 46040    1
 37004 46039 46041    1
 37005 46042 46043    1
 37006 46042 46044    1
 37007 46045 46046    1
 37008 46045 46047    1
 37009 46048 46049    1
 37010 46048 46050    1
 37011 46051 46052    1
 37012 46051 46053    1
 37013 46054 46055    1
 37014 46054 46056    1
 37015 46057 46058    1
 37016 46057 46059    1
 37017 46060 46061    1
 37018 46060 46062    1
 37019 46063 46064    1
 37020 46063 46065    1
 37021 46066 46067    1
 37022 46066 46068    1
 37023 46069 46070    1
 37024 46069 46071    1
 37025 46072 46073    1
 37026 46072 46074    1
 37027 46075 46076    1
 37028 46075 46077    1
 37029 46078 46079    1
 37030 46078 46080    1
 37031 46081 46082    1
 37032 46081 46083    1
 37033 46084 46085    1
 37034 46084 46086    1
 37035 46087 46088    1
 37036 46087 46089    1
 37037 46090 46091    1
 37038 46090 46092    1
 37039 46093 46094    1
 37040 46093 46095    1
 37041 46096 46097    1
 37042 46096 46098    1
 37043 46099 46100    1
 37044 46099 46101    1
 37045 46102 46103    1
 37046 46102 46104    1
 37047 46105 46106    1
 37048 46105 46107    1
 37049 46108 46109    1
 37050 46108 46110    1
 37051 46111 46112    1
 37052 46111 46113    1
 37053 46114 46115    1
 37054 46114 46116    1
 37055 46117 46118    1
 37056 46117 46119    1
 37057 46120 46121    1
 37058 46120 46122    1
 37059 46123 46124    1
 37060 46123 46125    1
 37061 46126 46127    1
 37062 46126 46128    1
 37063 46129 46130    1
 37064 46129 46131    1
 37065 46132 46133    1
 37066 46132 46134    1
 37067 46135 46136    1
 37068 46135 46137    1
 37069 46138 46139    1
 37070 46138 46140    1
 37071 46141 46142    1
 37072 46141 46143    1
 37073 46144 46145    1
 37074 46144 46146    1
 37075 46147 46148    1
 37076 46147 46149    1
 37077 46150 46151    1
 37078 46150 46152    1
 37079 46153 46154    1
 37080 46153 46155    1
 37081 46156 46157    1
 37082 46156 46158    1
 37083 46159 46160    1
 37084 46159 46161    1
 37085 46162 46163    1
 37086 46162 46164    1
 37087 46165 46166    1
 37088 46165 46167    1
 37089 46168 46169    1
 37090 46168 46170    1
 37091 46171 46172    1
 37092 46171 46173    1
 37093 46174 46175    1
 37094 46174 46176    1
 37095 46177 46178    1
 37096 46177 46179    1
 37097 46180 46181    1
 37098 46180 46182    1
 37099 46183 46184    1
 37100 46183 46185    1
 37101 46186 46187    1
 37102 46186 46188    1
 37103 46189 46190    1
 37104 46189 46191    1
 37105 46192 46193    1
 37106 46192 46194    1
 37107 46195 46196    1
 37108 46195 46197    1
 37109 46198 46199    1
 37110 46198 46200    1
 37111 46201 46202    1
 37112 46201 46203    1
 37113 46204 46205    1
 37114 46204 46206    1
 37115 46207 46208    1
 37116 46207 46209    1
 37117 46210 46211    1
 37118 46210 46212    1
 37119 46213 46214    1
 37120 46213 46215    1
 37121 46216 46217    1
 37122 46216 46218    1
 37123 46219 46220    1
 37124 46219 46221    1
 37125 46222 46223    1
 37126 46222 46224    1
 37127 46225 46226    1
 37128 46225 46227    1
 37129 46228 46229    1
 37130 46228 46230    1
 37131 46231 46232    1
 37132 46231 46233    1
 37133 46234 46235    1
 37134 46234 46236    1
 37135 46237 46238    1
 37136 46237 46239    1
 37137 46240 46241    1
 37138 46240 46242    1
 37139 46243 46244    1
 37140 46243 46245    1
 37141 46246 46247    1
 37142 46246 46248    1
 37143 46249 46250    1
 37144 46249 46251    1
 37145 46252 46253    1
 37146 46252 46254    1
 37147 46255 46256    1
 37148 46255 46257    1
 37149 46258 46259    1
 37150 46258 46260    1
 37151 46261 46262    1
 37152 46261 46263    1
 37153 46264 46265    1
 37154 46264 46266    1
 37155 46267 46268    1
 37156 46267 46269    1
 37157 46270 46271    1
 37158 46270 46272    1
 37159 46273 46274    1
 37160 46273 46275    1
 37161 46276 46277    1
 37162 46276 46278    1
 37163 46279 46280    1
 37164 46279 46281    1
 37165 46282 46283    1
 37166 46282 46284    1
 37167 46285 46286    1
 37168 46285 46287    1
 37169 46288 46289    1
 37170 46288 46290    1
 37171 46291 46292    1
 37172 46291 46293    1
 37173 46294 46295    1
 37174 46294 46296    1
 37175 46297 46298    1
 37176 46297 46299    1
 37177 46300 46301    1
 37178 46300 46302    1
 37179 46303 46304    1
 37180 46303 46305    1
 37181 46306 46307    1
 37182 46306 46308    1
 37183 46309 46310    1
 37184 46309 46311    1
 37185 46312 46313    1
 37186 46312 46314    1
 37187 46315 46316    1
 37188 46315 46317    1
 37189 46318 46319    1
 37190 46318 46320    1
 37191 46321 46322    1
 37192 46321 46323    1
 37193 46324 46325    1
 37194 46324 46326    1
 37195 46327 46328    1
 37196 46327 46329    1
 37197 46330 46331    1
 37198 46330 46332    1
 37199 46333 46334    1
 37200 46333 46335    1
 37201 46336 46337    1
 37202 46336 46338    1
 37203 46339 46340    1
 37204 46339 46341    1
 37205 46342 46343    1
 37206 46342 46344    1
 37207 46345 46346    1
 37208 46345 46347    1
 37209 46348 46349    1
 37210 46348 46350    1
 37211 46351 46352    1
 37212 46351 46353    1
 37213 46354 46355    1
 37214 46354 46356    1
 37215 46357 46358    1
 37216 46357 46359    1
 37217 46360 46361    1
 37218 46360 46362    1
 37219 46363 46364    1
 37220 46363 46365    1
 37221 46366 46367    1
 37222 46366 46368    1
 37223 46369 46370    1
 37224 46369 46371    1
 37225 46372 46373    1
 37226 46372 46374    1
 37227 46375 46376    1
 37228 46375 46377    1
 37229 46378 46379    1
 37230 46378 46380    1
 37231 46381 46382    1
 37232 46381 46383    1
 37233 46384 46385    1
 37234 46384 46386    1
 37235 46387 46388    1
 37236 46387 46389    1
 37237 46390 46391    1
 37238 46390 46392    1
 37239 46393 46394    1
 37240 46393 46395    1
 37241 46396 46397    1
 37242 46396 46398    1
 37243 46399 46400    1
 37244 46399 46401    1
 37245 46402 46403    1
 37246 46402 46404    1
 37247 46405 46406    1
 37248 46405 46407    1
 37249 46408 46409    1
 37250 46408 46410    1
 37251 46411 46412    1
 37252 46411 46413    1
 37253 46414 46415    1
 37254 46414 46416    1
 37255 46417 46418    1
 37256 46417 46419    1
 37257 46420 46421    1
 37258 46420 46422    1
 37259 46423 46424    1
 37260 46423 46425    1
 37261 46426 46427    1
 37262 46426 46428    1
 37263 46429 46430    1
 37264 46429 46431    1
 37265 46432 46433    1
 37266 46432 46434    1
 37267 46435 46436    1
 37268 46435 46437    1
 37269 46438 46439    1
 37270 46438 46440    1
 37271 46441 46442    1
 37272 46441 46443    1
 37273 46444 46445    1
 37274 46444 46446    1
 37275 46447 46448    1
 37276 46447 46449    1
 37277 46450 46451    1
 37278 46450 46452    1
 37279 46453 46454    1
 37280 46453 46455    1
 37281 46456 46457    1
 37282 46456 46458    1
 37283 46459 46460    1
 37284 46459 46461    1
 37285 46462 46463    1
 37286 46462 46464    1
 37287 46465 46466    1
 37288 46465 46467    1
 37289 46468 46469    1
 37290 46468 46470    1
 37291 46471 46472    1
 37292 46471 46473    1
 37293 46474 46475    1
 37294 46474 46476    1
 37295 46477 46478    1
 37296 46477 46479    1
 37297 46480 46481    1
 37298 46480 46482    1
 37299 46483 46484    1
 37300 46483 46485    1
 37301 46486 46487    1
 37302 46486 46488    1
 37303 46489 46490    1
 37304 46489 46491    1
 37305 46492 46493    1
 37306 46492 46494    1
 37307 46495 46496    1
 37308 46495 46497    1
 37309 46498 46499    1
 37310 46498 46500    1
 37311 46501 46502    1
 37312 46501 46503    1
 37313 46504 46505    1
 37314 46504 46506    1
 37315 46507 46508    1
 37316 46507 46509    1
 37317 46510 46511    1
 37318 46510 46512    1
 37319 46513 46514    1
 37320 46513 46515    1
 37321 46516 46517    1
 37322 46516 46518    1
 37323 46519 46520    1
 37324 46519 46521    1
 37325 46522 46523    1
 37326 46522 46524    1
 37327 46525 46526    1
 37328 46525 46527    1
 37329 46528 46529    1
 37330 46528 46530    1
 37331 46531 46532    1
 37332 46531 46533    1
 37333 46534 46535    1
 37334 46534 46536    1
 37335 46537 46538    1
 37336 46537 46539    1
 37337 46540 46541    1
 37338 46540 46542    1
 37339 46543 46544    1
 37340 46543 46545    1
 37341 46546 46547    1
 37342 46546 46548    1
 37343 46549 46550    1
 37344 46549 46551    1
 37345 46552 46553    1
 37346 46552 46554    1
 37347 46555 46556    1
 37348 46555 46557    1
 37349 46558 46559    1
 37350 46558 46560    1
 37351 46561 46562    1
 37352 46561 46563    1
 37353 46564 46565    1
 37354 46564 46566    1
 37355 46567 46568    1
 37356 46567 46569    1
 37357 46570 46571    1
 37358 46570 46572    1
 37359 46573 46574    1
 37360 46573 46575    1
 37361 46576 46577    1
 37362 46576 46578    1
 37363 46579 46580    1
 37364 46579 46581    1
 37365 46582 46583    1
 37366 46582 46584    1
 37367 46585 46586    1
 37368 46585 46587    1
 37369 46588 46589    1
 37370 46588 46590    1
 37371 46591 46592    1
 37372 46591 46593    1
 37373 46594 46595    1
 37374 46594 46596    1
 37375 46597 46598    1
 37376 46597 46599    1
 37377 46600 46601    1
 37378 46600 46602    1
 37379 46603 46604    1
 37380 46603 46605    1
 37381 46606 46607    1
 37382 46606 46608    1
 37383 46609 46610    1
 37384 46609 46611    1
 37385 46612 46613    1
 37386 46612 46614    1
 37387 46615 46616    1
 37388 46615 46617    1
 37389 46618 46619    1
 37390 46618 46620    1
 37391 46621 46622    1
 37392 46621 46623    1
 37393 46624 46625    1
 37394 46624 46626    1
 37395 46627 46628    1
 37396 46627 46629    1
 37397 46630 46631    1
 37398 46630 46632    1
 37399 46633 46634    1
 37400 46633 46635    1
 37401 46636 46637    1
 37402 46636 46638    1
 37403 46639 46640    1
 37404 46639 46641    1
 37405 46642 46643    1
 37406 46642 46644    1
 37407 46645 46646    1
 37408 46645 46647    1
 37409 46648 46649    1
 37410 46648 46650    1
 37411 46651 46652    1
 37412 46651 46653    1
 37413 46654 46655    1
 37414 46654 46656    1
 37415 46657 46658    1
 37416 46657 46659    1
 37417 46660 46661    1
 37418 46660 46662    1
 37419 46663 46664    1
 37420 46663 46665    1
 37421 46666 46667    1
 37422 46666 46668    1
 37423 46669 46670    1
 37424 46669 46671    1
 37425 46672 46673    1
 37426 46672 46674    1
 37427 46675 46676    1
 37428 46675 46677    1
 37429 46678 46679    1
 37430 46678 46680    1
 37431 46681 46682    1
 37432 46681 46683    1
 37433 46684 46685    1
 37434 46684 46686    1
 37435 46687 46688    1
 37436 46687 46689    1
 37437 46690 46691    1
 37438 46690 46692    1
 37439 46693 46694    1
 37440 46693 46695    1
 37441 46696 46697    1
 37442 46696 46698    1
 37443 46699 46700    1
 37444 46699 46701    1
 37445 46702 46703    1
 37446 46702 46704    1
 37447 46705 46706    1
 37448 46705 46707    1
 37449 46708 46709    1
 37450 46708 46710    1
 37451 46711 46712    1
 37452 46711 46713    1
 37453 46714 46715    1
 37454 46714 46716    1
 37455 46717 46718    1
 37456 46717 46719    1
 37457 46720 46721    1
 37458 46720 46722    1
 37459 46723 46724    1
 37460 46723 46725    1
 37461 46726 46727    1
 37462 46726 46728    1
 37463 46729 46730    1
 37464 46729 46731    1
 37465 46732 46733    1
 37466 46732 46734    1
 37467 46735 46736    1
 37468 46735 46737    1
 37469 46738 46739    1
 37470 46738 46740    1
 37471 46741 46742    1
 37472 46741 46743    1
 37473 46744 46745    1
 37474 46744 46746    1
 37475 46747 46748    1
 37476 46747 46749    1
 37477 46750 46751    1
 37478 46750 46752    1
 37479 46753 46754    1
 37480 46753 46755    1
 37481 46756 46757    1
 37482 46756 46758    1
 37483 46759 46760    1
 37484 46759 46761    1
 37485 46762 46763    1
 37486 46762 46764    1
 37487 46765 46766    1
 37488 46765 46767    1
 37489 46768 46769    1
 37490 46768 46770    1
 37491 46771 46772    1
 37492 46771 46773    1
 37493 46774 46775    1
 37494 46774 46776    1
 37495 46777 46778    1
 37496 46777 46779    1
 37497 46780 46781    1
 37498 46780 46782    1
 37499 46783 46784    1
 37500 46783 46785    1
 37501 46786 46787    1
 37502 46786 46788    1
 37503 46789 46790    1
 37504 46789 46791    1
 37505 46792 46793    1
 37506 46792 46794    1
 37507 46795 46796    1
 37508 46795 46797    1
 37509 46798 46799    1
 37510 46798 46800    1
 37511 46801 46802    1
 37512 46801 46803    1
 37513 46804 46805    1
 37514 46804 46806    1
 37515 46807 46808    1
 37516 46807 46809    1
 37517 46810 46811    1
 37518 46810 46812    1
 37519 46813 46814    1
 37520 46813 46815    1
 37521 46816 46817    1
 37522 46816 46818    1
 37523 46819 46820    1
 37524 46819 46821    1
 37525 46822 46823    1
 37526 46822 46824    1
 37527 46825 46826    1
 37528 46825 46827    1
 37529 46828 46829    1
 37530 46828 46830    1
 37531 46831 46832    1
 37532 46831 46833    1
 37533 46834 46835    1
 37534 46834 46836    1
 37535 46837 46838    1
 37536 46837 46839    1
 37537 46840 46841    1
 37538 46840 46842    1
 37539 46843 46844    1
 37540 46843 46845    1
 37541 46846 46847    1
 37542 46846 46848    1
 37543 46849 46850    1
 37544 46849 46851    1
 37545 46852 46853    1
 37546 46852 46854    1
 37547 46855 46856    1
 37548 46855 46857    1
 37549 46858 46859    1
 37550 46858 46860    1
 37551 46861 46862    1
 37552 46861 46863    1
 37553 46864 46865    1
 37554 46864 46866    1
 37555 46867 46868    1
 37556 46867 46869    1
 37557 46870 46871    1
 37558 46870 46872    1
 37559 46873 46874    1
 37560 46873 46875    1
 37561 46876 46877    1
 37562 46876 46878    1
 37563 46879 46880    1
 37564 46879 46881    1
 37565 46882 46883    1
 37566 46882 46884    1
 37567 46885 46886    1
 37568 46885 46887    1
 37569 46888 46889    1
 37570 46888 46890    1
 37571 46891 46892    1
 37572 46891 46893    1
 37573 46894 46895    1
 37574 46894 46896    1
 37575 46897 46898    1
 37576 46897 46899    1
 37577 46900 46901    1
 37578 46900 46902    1
 37579 46903 46904    1
 37580 46903 46905    1
 37581 46906 46907    1
 37582 46906 46908    1
 37583 46909 46910    1
 37584 46909 46911    1
 37585 46912 46913    1
 37586 46912 46914    1
 37587 46915 46916    1
 37588 46915 46917    1
 37589 46918 46919    1
 37590 46918 46920    1
 37591 46921 46922    1
 37592 46921 46923    1
 37593 46924 46925    1
 37594 46924 46926    1
 37595 46927 46928    1
 37596 46927 46929    1
 37597 46930 46931    1
 37598 46930 46932    1
 37599 46933 46934    1
 37600 46933 46935    1
 37601 46936 46937    1
 37602 46936 46938    1
 37603 46939 46940    1
 37604 46939 46941    1
 37605 46942 46943    1
 37606 46942 46944    1
 37607 46945 46946    1
 37608 46945 46947    1
 37609 46948 46949    1
 37610 46948 46950    1
 37611 46951 46952    1
 37612 46951 46953    1
 37613 46954 46955    1
 37614 46954 46956    1
 37615 46957 46958    1
 37616 46957 46959    1
 37617 46960 46961    1
 37618 46960 46962    1
 37619 46963 46964    1
 37620 46963 46965    1
 37621 46966 46967    1
 37622 46966 46968    1
 37623 46969 46970    1
 37624 46969 46971    1
 37625 46972 46973    1
 37626 46972 46974    1
 37627 46975 46976    1
 37628 46975 46977    1
 37629 46978 46979    1
 37630 46978 46980    1
 37631 46981 46982    1
 37632 46981 46983    1
 37633 46984 46985    1
 37634 46984 46986    1
 37635 46987 46988    1
 37636 46987 46989    1
 37637 46990 46991    1
 37638 46990 46992    1
 37639 46993 46994    1
 37640 46993 46995    1
 37641 46996 46997    1
 37642 46996 46998    1
 37643 46999 47000    1
 37644 46999 47001    1
 37645 47002 47003    1
 37646 47002 47004    1
 37647 47005 47006    1
 37648 47005 47007    1
 37649 47008 47009    1
 37650 47008 47010    1
 37651 47011 47012    1
 37652 47011 47013    1
 37653 47014 47015    1
 37654 47014 47016    1
 37655 47017 47018    1
 37656 47017 47019    1
 37657 47020 47021    1
 37658 47020 47022    1
 37659 47023 47024    1
 37660 47023 47025    1
 37661 47026 47027    1
 37662 47026 47028    1
 37663 47029 47030    1
 37664 47029 47031    1
 37665 47032 47033    1
 37666 47032 47034    1
 37667 47035 47036    1
 37668 47035 47037    1
 37669 47038 47039    1
 37670 47038 47040    1
 37671 47041 47042    1
 37672 47041 47043    1
 37673 47044 47045    1
 37674 47044 47046    1
 37675 47047 47048    1
 37676 47047 47049    1
 37677 47050 47051    1
 37678 47050 47052    1
 37679 47053 47054    1
 37680 47053 47055    1
 37681 47056 47057    1
 37682 47056 47058    1
 37683 47059 47060    1
 37684 47059 47061    1
 37685 47062 47063    1
 37686 47062 47064    1
 37687 47065 47066    1
 37688 47065 47067    1
 37689 47068 47069    1
 37690 47068 47070    1
 37691 47071 47072    1
 37692 47071 47073    1
 37693 47074 47075    1
 37694 47074 47076    1
 37695 47077 47078    1
 37696 47077 47079    1
 37697 47080 47081    1
 37698 47080 47082    1
 37699 47083 47084    1
 37700 47083 47085    1
 37701 47086 47087    1
 37702 47086 47088    1
 37703 47089 47090    1
 37704 47089 47091    1
 37705 47092 47093    1
 37706 47092 47094    1
 37707 47095 47096    1
 37708 47095 47097    1
 37709 47098 47099    1
 37710 47098 47100    1
 37711 47101 47102    1
 37712 47101 47103    1
 37713 47104 47105    1
 37714 47104 47106    1
 37715 47107 47108    1
 37716 47107 47109    1
 37717 47110 47111    1
 37718 47110 47112    1
 37719 47113 47114    1
 37720 47113 47115    1
 37721 47116 47117    1
 37722 47116 47118    1
 37723 47119 47120    1
 37724 47119 47121    1
 37725 47122 47123    1
 37726 47122 47124    1
 37727 47125 47126    1
 37728 47125 47127    1
 37729 47128 47129    1
 37730 47128 47130    1
 37731 47131 47132    1
 37732 47131 47133    1
 37733 47134 47135    1
 37734 47134 47136    1
 37735 47137 47138    1
 37736 47137 47139    1
 37737 47140 47141    1
 37738 47140 47142    1
 37739 47143 47144    1
 37740 47143 47145    1
 37741 47146 47147    1
 37742 47146 47148    1
 37743 47149 47150    1
 37744 47149 47151    1
 37745 47152 47153    1
 37746 47152 47154    1
 37747 47155 47156    1
 37748 47155 47157    1
 37749 47158 47159    1
 37750 47158 47160    1
 37751 47161 47162    1
 37752 47161 47163    1
 37753 47164 47165    1
 37754 47164 47166    1
 37755 47167 47168    1
 37756 47167 47169    1
 37757 47170 47171    1
 37758 47170 47172    1
 37759 47173 47174    1
 37760 47173 47175    1
 37761 47176 47177    1
 37762 47176 47178    1
 37763 47179 47180    1
 37764 47179 47181    1
 37765 47182 47183    1
 37766 47182 47184    1
 37767 47185 47186    1
 37768 47185 47187    1
 37769 47188 47189    1
 37770 47188 47190    1
 37771 47191 47192    1
 37772 47191 47193    1
 37773 47194 47195    1
 37774 47194 47196    1
 37775 47197 47198    1
 37776 47197 47199    1
 37777 47200 47201    1
 37778 47200 47202    1
 37779 47203 47204    1
 37780 47203 47205    1
 37781 47206 47207    1
 37782 47206 47208    1
 37783 47209 47210    1
 37784 47209 47211    1
 37785 47212 47213    1
 37786 47212 47214    1
 37787 47215 47216    1
 37788 47215 47217    1
 37789 47218 47219    1
 37790 47218 47220    1
 37791 47221 47222    1
 37792 47221 47223    1
 37793 47224 47225    1
 37794 47224 47226    1
 37795 47227 47228    1
 37796 47227 47229    1
 37797 47230 47231    1
 37798 47230 47232    1
 37799 47233 47234    1
 37800 47233 47235    1
 37801 47236 47237    1
 37802 47236 47238    1
 37803 47239 47240    1
 37804 47239 47241    1
 37805 47242 47243    1
 37806 47242 47244    1
 37807 47245 47246    1
 37808 47245 47247    1
 37809 47248 47249    1
 37810 47248 47250    1
 37811 47251 47252    1
 37812 47251 47253    1
 37813 47254 47255    1
 37814 47254 47256    1
 37815 47257 47258    1
 37816 47257 47259    1
 37817 47260 47261    1
 37818 47260 47262    1
 37819 47263 47264    1
 37820 47263 47265    1
 37821 47266 47267    1
 37822 47266 47268    1
 37823 47269 47270    1
 37824 47269 47271    1
 37825 47272 47273    1
 37826 47272 47274    1
 37827 47275 47276    1
 37828 47275 47277    1
 37829 47278 47279    1
 37830 47278 47280    1
 37831 47281 47282    1
 37832 47281 47283    1
 37833 47284 47285    1
 37834 47284 47286    1
 37835 47287 47288    1
 37836 47287 47289    1
 37837 47290 47291    1
 37838 47290 47292    1
 37839 47293 47294    1
 37840 47293 47295    1
 37841 47296 47297    1
 37842 47296 47298    1
 37843 47299 47300    1
 37844 47299 47301    1
 37845 47302 47303    1
 37846 47302 47304    1
 37847 47305 47306    1
 37848 47305 47307    1
 37849 47308 47309    1
 37850 47308 47310    1
 37851 47311 47312    1
 37852 47311 47313    1
 37853 47314 47315    1
 37854 47314 47316    1
 37855 47317 47318    1
 37856 47317 47319    1
 37857 47320 47321    1
 37858 47320 47322    1
 37859 47323 47324    1
 37860 47323 47325    1
 37861 47326 47327    1
 37862 47326 47328    1
 37863 47329 47330    1
 37864 47329 47331    1
 37865 47332 47333    1
 37866 47332 47334    1
 37867 47335 47336    1
 37868 47335 47337    1
 37869 47338 47339    1
 37870 47338 47340    1
 37871 47341 47342    1
 37872 47341 47343    1
 37873 47344 47345    1
 37874 47344 47346    1
 37875 47347 47348    1
 37876 47347 47349    1
 37877 47350 47351    1
 37878 47350 47352    1
 37879 47353 47354    1
 37880 47353 47355    1
 37881 47356 47357    1
 37882 47356 47358    1
 37883 47359 47360    1
 37884 47359 47361    1
 37885 47362 47363    1
 37886 47362 47364    1
 37887 47365 47366    1
 37888 47365 47367    1
 37889 47368 47369    1
 37890 47368 47370    1
 37891 47371 47372    1
 37892 47371 47373    1
 37893 47374 47375    1
 37894 47374 47376    1
 37895 47377 47378    1
 37896 47377 47379    1
 37897 47380 47381    1
 37898 47380 47382    1
 37899 47383 47384    1
 37900 47383 47385    1
 37901 47386 47387    1
 37902 47386 47388    1
 37903 47389 47390    1
 37904 47389 47391    1
 37905 47392 47393    1
 37906 47392 47394    1
 37907 47395 47396    1
 37908 47395 47397    1
 37909 47398 47399    1
 37910 47398 47400    1
 37911 47401 47402    1
 37912 47401 47403    1
 37913 47404 47405    1
 37914 47404 47406    1
 37915 47407 47408    1
 37916 47407 47409    1
 37917 47410 47411    1
 37918 47410 47412    1
 37919 47413 47414    1
 37920 47413 47415    1
 37921 47416 47417    1
 37922 47416 47418    1
 37923 47419 47420    1
 37924 47419 47421    1
 37925 47422 47423    1
 37926 47422 47424    1
 37927 47425 47426    1
 37928 47425 47427    1
 37929 47428 47429    1
 37930 47428 47430    1
 37931 47431 47432    1
 37932 47431 47433    1
 37933 47434 47435    1
 37934 47434 47436    1
 37935 47437 47438    1
 37936 47437 47439    1
 37937 47440 47441    1
 37938 47440 47442    1
 37939 47443 47444    1
 37940 47443 47445    1
 37941 47446 47447    1
 37942 47446 47448    1
 37943 47449 47450    1
 37944 47449 47451    1
 37945 47452 47453    1
 37946 47452 47454    1
 37947 47455 47456    1
 37948 47455 47457    1
 37949 47458 47459    1
 37950 47458 47460    1
 37951 47461 47462    1
 37952 47461 47463    1
 37953 47464 47465    1
 37954 47464 47466    1
 37955 47467 47468    1
 37956 47467 47469    1
 37957 47470 47471    1
 37958 47470 47472    1
 37959 47473 47474    1
 37960 47473 47475    1
 37961 47476 47477    1
 37962 47476 47478    1
 37963 47479 47480    1
 37964 47479 47481    1
 37965 47482 47483    1
 37966 47482 47484    1
 37967 47485 47486    1
 37968 47485 47487    1
 37969 47488 47489    1
 37970 47488 47490    1
 37971 47491 47492    1
 37972 47491 47493    1
 37973 47494 47495    1
 37974 47494 47496    1
 37975 47497 47498    1
 37976 47497 47499    1
 37977 47500 47501    1
 37978 47500 47502    1
 37979 47503 47504    1
 37980 47503 47505    1
 37981 47506 47507    1
 37982 47506 47508    1
 37983 47509 47510    1
 37984 47509 47511    1
 37985 47512 47513    1
 37986 47512 47514    1
 37987 47515 47516    1
 37988 47515 47517    1
 37989 47518 47519    1
 37990 47518 47520    1
 37991 47521 47522    1
 37992 47521 47523    1
 37993 47524 47525    1
 37994 47524 47526    1
 37995 47527 47528    1
 37996 47527 47529    1
 37997 47530 47531    1
 37998 47530 47532    1
 37999 47533 47534    1
 38000 47533 47535    1
 38001 47536 47537    1
 38002 47536 47538    1
 38003 47539 47540    1
 38004 47539 47541    1
 38005 47542 47543    1
 38006 47542 47544    1
 38007 47545 47546    1
 38008 47545 47547    1
 38009 47548 47549    1
 38010 47548 47550    1
 38011 47551 47552    1
 38012 47551 47553    1
 38013 47554 47555    1
 38014 47554 47556    1
 38015 47557 47558    1
 38016 47557 47559    1
 38017 47560 47561    1
 38018 47560 47562    1
 38019 47563 47564    1
 38020 47563 47565    1
 38021 47566 47567    1
 38022 47566 47568    1
 38023 47569 47570    1
 38024 47569 47571    1
 38025 47572 47573    1
 38026 47572 47574    1
 38027 47575 47576    1
 38028 47575 47577    1
 38029 47578 47579    1
 38030 47578 47580    1
 38031 47581 47582    1
 38032 47581 47583    1
 38033 47584 47585    1
 38034 47584 47586    1
 38035 47587 47588    1
 38036 47587 47589    1
 38037 47590 47591    1
 38038 47590 47592    1
 38039 47593 47594    1
 38040 47593 47595    1
 38041 47596 47597    1
 38042 47596 47598    1
 38043 47599 47600    1
 38044 47599 47601    1
 38045 47602 47603    1
 38046 47602 47604    1
 38047 47605 47606    1
 38048 47605 47607    1
 38049 47608 47609    1
 38050 47608 47610    1
 38051 47611 47612    1
 38052 47611 47613    1
 38053 47614 47615    1
 38054 47614 47616    1
 38055 47617 47618    1
 38056 47617 47619    1
 38057 47620 47621    1
 38058 47620 47622    1
 38059 47623 47624    1
 38060 47623 47625    1
 38061 47626 47627    1
 38062 47626 47628    1
 38063 47629 47630    1
 38064 47629 47631    1
 38065 47632 47633    1
 38066 47632 47634    1
 38067 47635 47636    1
 38068 47635 47637    1
 38069 47638 47639    1
 38070 47638 47640    1
 38071 47641 47642    1
 38072 47641 47643    1
 38073 47644 47645    1
 38074 47644 47646    1
 38075 47647 47648    1
 38076 47647 47649    1
 38077 47650 47651    1
 38078 47650 47652    1
 38079 47653 47654    1
 38080 47653 47655    1
 38081 47656 47657    1
 38082 47656 47658    1
 38083 47659 47660    1
 38084 47659 47661    1
 38085 47662 47663    1
 38086 47662 47664    1
 38087 47665 47666    1
 38088 47665 47667    1
 38089 47668 47669    1
 38090 47668 47670    1
 38091 47671 47672    1
 38092 47671 47673    1
 38093 47674 47675    1
 38094 47674 47676    1
 38095 47677 47678    1
 38096 47677 47679    1
 38097 47680 47681    1
 38098 47680 47682    1
 38099 47683 47684    1
 38100 47683 47685    1
 38101 47686 47687    1
 38102 47686 47688    1
 38103 47689 47690    1
 38104 47689 47691    1
 38105 47692 47693    1
 38106 47692 47694    1
 38107 47695 47696    1
 38108 47695 47697    1
 38109 47698 47699    1
 38110 47698 47700    1
 38111 47701 47702    1
 38112 47701 47703    1
 38113 47704 47705    1
 38114 47704 47706    1
 38115 47707 47708    1
 38116 47707 47709    1
 38117 47710 47711    1
 38118 47710 47712    1
 38119 47713 47714    1
 38120 47713 47715    1
 38121 47716 47717    1
 38122 47716 47718    1
 38123 47719 47720    1
 38124 47719 47721    1
 38125 47722 47723    1
 38126 47722 47724    1
 38127 47725 47726    1
 38128 47725 47727    1
 38129 47728 47729    1
 38130 47728 47730    1
 38131 47731 47732    1
 38132 47731 47733    1
 38133 47734 47735    1
 38134 47734 47736    1
 38135 47737 47738    1
 38136 47737 47739    1
 38137 47740 47741    1
 38138 47740 47742    1
 38139 47743 47744    1
 38140 47743 47745    1
 38141 47746 47747    1
 38142 47746 47748    1
 38143 47749 47750    1
 38144 47749 47751    1
 38145 47752 47753    1
 38146 47752 47754    1
 38147 47755 47756    1
 38148 47755 47757    1
 38149 47758 47759    1
 38150 47758 47760    1
 38151 47761 47762    1
 38152 47761 47763    1
 38153 47764 47765    1
 38154 47764 47766    1
 38155 47767 47768    1
 38156 47767 47769    1
 38157 47770 47771    1
 38158 47770 47772    1
 38159 47773 47774    1
 38160 47773 47775    1
 38161 47776 47777    1
 38162 47776 47778    1
 38163 47779 47780    1
 38164 47779 47781    1
 38165 47782 47783    1
 38166 47782 47784    1
 38167 47785 47786    1
 38168 47785 47787    1
 38169 47788 47789    1
 38170 47788 47790    1
 38171 47791 47792    1
 38172 47791 47793    1
 38173 47794 47795    1
 38174 47794 47796    1
 38175 47797 47798    1
 38176 47797 47799    1
 38177 47800 47801    1
 38178 47800 47802    1
 38179 47803 47804    1
 38180 47803 47805    1
 38181 47806 47807    1
 38182 47806 47808    1
 38183 47809 47810    1
 38184 47809 47811    1
 38185 47812 47813    1
 38186 47812 47814    1
 38187 47815 47816    1
 38188 47815 47817    1
 38189 47818 47819    1
 38190 47818 47820    1
 38191 47821 47822    1
 38192 47821 47823    1
 38193 47824 47825    1
 38194 47824 47826    1
 38195 47827 47828    1
 38196 47827 47829    1
 38197 47830 47831    1
 38198 47830 47832    1
 38199 47833 47834    1
 38200 47833 47835    1
 38201 47836 47837    1
 38202 47836 47838    1
 38203 47839 47840    1
 38204 47839 47841    1
 38205 47842 47843    1
 38206 47842 47844    1
 38207 47845 47846    1
 38208 47845 47847    1
 38209 47848 47849    1
 38210 47848 47850    1
 38211 47851 47852    1
 38212 47851 47853    1
 38213 47854 47855    1
 38214 47854 47856    1
 38215 47857 47858    1
 38216 47857 47859    1
 38217 47860 47861    1
 38218 47860 47862    1
 38219 47863 47864    1
 38220 47863 47865    1
 38221 47866 47867    1
 38222 47866 47868    1
 38223 47869 47870    1
 38224 47869 47871    1
 38225 47872 47873    1
 38226 47872 47874    1
 38227 47875 47876    1
 38228 47875 47877    1
 38229 47878 47879    1
 38230 47878 47880    1
 38231 47881 47882    1
 38232 47881 47883    1
 38233 47884 47885    1
 38234 47884 47886    1
 38235 47887 47888    1
 38236 47887 47889    1
 38237 47890 47891    1
 38238 47890 47892    1
 38239 47893 47894    1
 38240 47893 47895    1
 38241 47896 47897    1
 38242 47896 47898    1
 38243 47899 47900    1
 38244 47899 47901    1
 38245 47902 47903    1
 38246 47902 47904    1
 38247 47905 47906    1
 38248 47905 47907    1
 38249 47908 47909    1
 38250 47908 47910    1
 38251 47911 47912    1
 38252 47911 47913    1
 38253 47914 47915    1
 38254 47914 47916    1
 38255 47917 47918    1
 38256 47917 47919    1
 38257 47920 47921    1
 38258 47920 47922    1
 38259 47923 47924    1
 38260 47923 47925    1
 38261 47926 47927    1
 38262 47926 47928    1
 38263 47929 47930    1
 38264 47929 47931    1
 38265 47932 47933    1
 38266 47932 47934    1
 38267 47935 47936    1
 38268 47935 47937    1
 38269 47938 47939    1
 38270 47938 47940    1
 38271 47941 47942    1
 38272 47941 47943    1
 38273 47944 47945    1
 38274 47944 47946    1
 38275 47947 47948    1
 38276 47947 47949    1
 38277 47950 47951    1
 38278 47950 47952    1
 38279 47953 47954    1
 38280 47953 47955    1
 38281 47956 47957    1
 38282 47956 47958    1
 38283 47959 47960    1
 38284 47959 47961    1
 38285 47962 47963    1
 38286 47962 47964    1
 38287 47965 47966    1
 38288 47965 47967    1
 38289 47968 47969    1
 38290 47968 47970    1
 38291 47971 47972    1
 38292 47971 47973    1
 38293 47974 47975    1
 38294 47974 47976    1
 38295 47977 47978    1
 38296 47977 47979    1
 38297 47980 47981    1
 38298 47980 47982    1
 38299 47983 47984    1
 38300 47983 47985    1
 38301 47986 47987    1
 38302 47986 47988    1
 38303 47989 47990    1
 38304 47989 47991    1
 38305 47992 47993    1
 38306 47992 47994    1
 38307 47995 47996    1
 38308 47995 47997    1
 38309 47998 47999    1
 38310 47998 48000    1
 38311 48001 48002    1
 38312 48001 48003    1
 38313 48004 48005    1
 38314 48004 48006    1
 38315 48007 48008    1
 38316 48007 48009    1
 38317 48010 48011    1
 38318 48010 48012    1
 38319 48013 48014    1
 38320 48013 48015    1
 38321 48016 48017    1
 38322 48016 48018    1
 38323 48019 48020    1
 38324 48019 48021    1
 38325 48022 48023    1
 38326 48022 48024    1
 38327 48025 48026    1
 38328 48025 48027    1
 38329 48028 48029    1
 38330 48028 48030    1
 38331 48031 48032    1
 38332 48031 48033    1
 38333 48034 48035    1
 38334 48034 48036    1
 38335 48037 48038    1
 38336 48037 48039    1
 38337 48040 48041    1
 38338 48040 48042    1
 38339 48043 48044    1
 38340 48043 48045    1
 38341 48046 48047    1
 38342 48046 48048    1
 38343 48049 48050    1
 38344 48049 48051    1
 38345 48052 48053    1
 38346 48052 48054    1
 38347 48055 48056    1
 38348 48055 48057    1
 38349 48058 48059    1
 38350 48058 48060    1
 38351 48061 48062    1
 38352 48061 48063    1
 38353 48064 48065    1
 38354 48064 48066    1
 38355 48067 48068    1
 38356 48067 48069    1
 38357 48070 48071    1
 38358 48070 48072    1
 38359 48073 48074    1
 38360 48073 48075    1
 38361 48076 48077    1
 38362 48076 48078    1
 38363 48079 48080    1
 38364 48079 48081    1
 38365 48082 48083    1
 38366 48082 48084    1
 38367 48085 48086    1
 38368 48085 48087    1
 38369 48088 48089    1
 38370 48088 48090    1
 38371 48091 48092    1
 38372 48091 48093    1
 38373 48094 48095    1
 38374 48094 48096    1
 38375 48097 48098    1
 38376 48097 48099    1
 38377 48100 48101    1
 38378 48100 48102    1
 38379 48103 48104    1
 38380 48103 48105    1
 38381 48106 48107    1
 38382 48106 48108    1
 38383 48109 48110    1
 38384 48109 48111    1
 38385 48112 48113    1
 38386 48112 48114    1
 38387 48115 48116    1
 38388 48115 48117    1
 38389 48118 48119    1
 38390 48118 48120    1
 38391 48121 48122    1
 38392 48121 48123    1
 38393 48124 48125    1
 38394 48124 48126    1
 38395 48127 48128    1
 38396 48127 48129    1
 38397 48130 48131    1
 38398 48130 48132    1
 38399 48133 48134    1
 38400 48133 48135    1
 38401 48136 48137    1
 38402 48136 48138    1
 38403 48139 48140    1
 38404 48139 48141    1
 38405 48142 48143    1
 38406 48142 48144    1
 38407 48145 48146    1
 38408 48145 48147    1
 38409 48148 48149    1
 38410 48148 48150    1
 38411 48151 48152    1
 38412 48151 48153    1
 38413 48154 48155    1
 38414 48154 48156    1
 38415 48157 48158    1
 38416 48157 48159    1
 38417 48160 48161    1
 38418 48160 48162    1
 38419 48163 48164    1
 38420 48163 48165    1
 38421 48166 48167    1
 38422 48166 48168    1
 38423 48169 48170    1
 38424 48169 48171    1
 38425 48172 48173    1
 38426 48172 48174    1
 38427 48175 48176    1
 38428 48175 48177    1
 38429 48178 48179    1
 38430 48178 48180    1
 38431 48181 48182    1
 38432 48181 48183    1
 38433 48184 48185    1
 38434 48184 48186    1
 38435 48187 48188    1
 38436 48187 48189    1
 38437 48190 48191    1
 38438 48190 48192    1
 38439 48193 48194    1
 38440 48193 48195    1
 38441 48196 48197    1
 38442 48196 48198    1
 38443 48199 48200    1
 38444 48199 48201    1
 38445 48202 48203    1
 38446 48202 48204    1
 38447 48205 48206    1
 38448 48205 48207    1
 38449 48208 48209    1
 38450 48208 48210    1
 38451 48211 48212    1
 38452 48211 48213    1
 38453 48214 48215    1
 38454 48214 48216    1
 38455 48217 48218    1
 38456 48217 48219    1
 38457 48220 48221    1
 38458 48220 48222    1
 38459 48223 48224    1
 38460 48223 48225    1
 38461 48226 48227    1
 38462 48226 48228    1
 38463 48229 48230    1
 38464 48229 48231    1
 38465 48232 48233    1
 38466 48232 48234    1
 38467 48235 48236    1
 38468 48235 48237    1
 38469 48238 48239    1
 38470 48238 48240    1
 38471 48241 48242    1
 38472 48241 48243    1
 38473 48244 48245    1
 38474 48244 48246    1
 38475 48247 48248    1
 38476 48247 48249    1
 38477 48250 48251    1
 38478 48250 48252    1
 38479 48253 48254    1
 38480 48253 48255    1
 38481 48256 48257    1
 38482 48256 48258    1
 38483 48259 48260    1
 38484 48259 48261    1
 38485 48262 48263    1
 38486 48262 48264    1
 38487 48265 48266    1
 38488 48265 48267    1
 38489 48268 48269    1
 38490 48268 48270    1
 38491 48271 48272    1
 38492 48271 48273    1
 38493 48274 48275    1
 38494 48274 48276    1
 38495 48277 48278    1
 38496 48277 48279    1
 38497 48280 48281    1
 38498 48280 48282    1
 38499 48283 48284    1
 38500 48283 48285    1
 38501 48286 48287    1
 38502 48286 48288    1
 38503 48289 48290    1
 38504 48289 48291    1
 38505 48292 48293    1
 38506 48292 48294    1
 38507 48295 48296    1
 38508 48295 48297    1
 38509 48298 48299    1
 38510 48298 48300    1
 38511 48301 48302    1
 38512 48301 48303    1
 38513 48304 48305    1
 38514 48304 48306    1
 38515 48307 48308    1
 38516 48307 48309    1
 38517 48310 48311    1
 38518 48310 48312    1
 38519 48313 48314    1
 38520 48313 48315    1
 38521 48316 48317    1
 38522 48316 48318    1
 38523 48319 48320    1
 38524 48319 48321    1
 38525 48322 48323    1
 38526 48322 48324    1
 38527 48325 48326    1
 38528 48325 48327    1
 38529 48328 48329    1
 38530 48328 48330    1
 38531 48331 48332    1
 38532 48331 48333    1
 38533 48334 48335    1
 38534 48334 48336    1
 38535 48337 48338    1
 38536 48337 48339    1
 38537 48340 48341    1
 38538 48340 48342    1
 38539 48343 48344    1
 38540 48343 48345    1
 38541 48346 48347    1
 38542 48346 48348    1
 38543 48349 48350    1
 38544 48349 48351    1
 38545 48352 48353    1
 38546 48352 48354    1
 38547 48355 48356    1
 38548 48355 48357    1
 38549 48358 48359    1
 38550 48358 48360    1
 38551 48361 48362    1
 38552 48361 48363    1
 38553 48364 48365    1
 38554 48364 48366    1
 38555 48367 48368    1
 38556 48367 48369    1
 38557 48370 48371    1
 38558 48370 48372    1
 38559 48373 48374    1
 38560 48373 48375    1
 38561 48376 48377    1
 38562 48376 48378    1
 38563 48379 48380    1
 38564 48379 48381    1
 38565 48382 48383    1
 38566 48382 48384    1
 38567 48385 48386    1
 38568 48385 48387    1
 38569 48388 48389    1
 38570 48388 48390    1
 38571 48391 48392    1
 38572 48391 48393    1
 38573 48394 48395    1
 38574 48394 48396    1
 38575 48397 48398    1
 38576 48397 48399    1
 38577 48400 48401    1
 38578 48400 48402    1
 38579 48403 48404    1
 38580 48403 48405    1
 38581 48406 48407    1
 38582 48406 48408    1
 38583 48409 48410    1
 38584 48409 48411    1
 38585 48412 48413    1
 38586 48412 48414    1
 38587 48415 48416    1
 38588 48415 48417    1
 38589 48418 48419    1
 38590 48418 48420    1
 38591 48421 48422    1
 38592 48421 48423    1
 38593 48424 48425    1
 38594 48424 48426    1
 38595 48427 48428    1
 38596 48427 48429    1
 38597 48430 48431    1
 38598 48430 48432    1
 38599 48433 48434    1
 38600 48433 48435    1
 38601 48436 48437    1
 38602 48436 48438    1
 38603 48439 48440    1
 38604 48439 48441    1
 38605 48442 48443    1
 38606 48442 48444    1
 38607 48445 48446    1
 38608 48445 48447    1
 38609 48448 48449    1
 38610 48448 48450    1
 38611 48451 48452    1
 38612 48451 48453    1
 38613 48454 48455    1
 38614 48454 48456    1
 38615 48457 48458    1
 38616 48457 48459    1
 38617 48460 48461    1
 38618 48460 48462    1
 38619 48463 48464    1
 38620 48463 48465    1
 38621 48466 48467    1
 38622 48466 48468    1
 38623 48469 48470    1
 38624 48469 48471    1
 38625 48472 48473    1
 38626 48472 48474    1
 38627 48475 48476    1
 38628 48475 48477    1
 38629 48478 48479    1
 38630 48478 48480    1
 38631 48481 48482    1
 38632 48481 48483    1
 38633 48484 48485    1
 38634 48484 48486    1
 38635 48487 48488    1
 38636 48487 48489    1
 38637 48490 48491    1
 38638 48490 48492    1
 38639 48493 48494    1
 38640 48493 48495    1
 38641 48496 48497    1
 38642 48496 48498    1
 38643 48499 48500    1
 38644 48499 48501    1
 38645 48502 48503    1
 38646 48502 48504    1
 38647 48505 48506    1
 38648 48505 48507    1
 38649 48508 48509    1
 38650 48508 48510    1
 38651 48511 48512    1
 38652 48511 48513    1
 38653 48514 48515    1
 38654 48514 48516    1
 38655 48517 48518    1
 38656 48517 48519    1
 38657 48520 48521    1
 38658 48520 48522    1
 38659 48523 48524    1
 38660 48523 48525    1
 38661 48526 48527    1
 38662 48526 48528    1
 38663 48529 48530    1
 38664 48529 48531    1
 38665 48532 48533    1
 38666 48532 48534    1
 38667 48535 48536    1
 38668 48535 48537    1
 38669 48538 48539    1
 38670 48538 48540    1
 38671 48541 48542    1
 38672 48541 48543    1
 38673 48544 48545    1
 38674 48544 48546    1
 38675 48547 48548    1
 38676 48547 48549    1
 38677 48550 48551    1
 38678 48550 48552    1
 38679 48553 48554    1
 38680 48553 48555    1
 38681 48556 48557    1
 38682 48556 48558    1
 38683 48559 48560    1
 38684 48559 48561    1
 38685 48562 48563    1
 38686 48562 48564    1
 38687 48565 48566    1
 38688 48565 48567    1
 38689 48568 48569    1
 38690 48568 48570    1
 38691 48571 48572    1
 38692 48571 48573    1
 38693 48574 48575    1
 38694 48574 48576    1
 38695 48577 48578    1
 38696 48577 48579    1
 38697 48580 48581    1
 38698 48580 48582    1
 38699 48583 48584    1
 38700 48583 48585    1
 38701 48586 48587    1
 38702 48586 48588    1
 38703 48589 48590    1
 38704 48589 48591    1
 38705 48592 48593    1
 38706 48592 48594    1
 38707 48595 48596    1
 38708 48595 48597    1
 38709 48598 48599    1
 38710 48598 48600    1
 38711 48601 48602    1
 38712 48601 48603    1
 38713 48604 48605    1
 38714 48604 48606    1
 38715 48607 48608    1
 38716 48607 48609    1
 38717 48610 48611    1
 38718 48610 48612    1
 38719 48613 48614    1
 38720 48613 48615    1
 38721 48616 48617    1
 38722 48616 48618    1
 38723 48619 48620    1
 38724 48619 48621    1
 38725 48622 48623    1
 38726 48622 48624    1
 38727 48625 48626    1
 38728 48625 48627    1
 38729 48628 48629    1
 38730 48628 48630    1
 38731 48631 48632    1
 38732 48631 48633    1
 38733 48634 48635    1
 38734 48634 48636    1
 38735 48637 48638    1
 38736 48637 48639    1
 38737 48640 48641    1
 38738 48640 48642    1
 38739 48643 48644    1
 38740 48643 48645    1
 38741 48646 48647    1
 38742 48646 48648    1
 38743 48649 48650    1
 38744 48649 48651    1
 38745 48652 48653    1
 38746 48652 48654    1
 38747 48655 48656    1
 38748 48655 48657    1
 38749 48658 48659    1
 38750 48658 48660    1
 38751 48661 48662    1
 38752 48661 48663    1
 38753 48664 48665    1
 38754 48664 48666    1
 38755 48667 48668    1
 38756 48667 48669    1
 38757 48670 48671    1
 38758 48670 48672    1
 38759 48673 48674    1
 38760 48673 48675    1
 38761 48676 48677    1
 38762 48676 48678    1
 38763 48679 48680    1
 38764 48679 48681    1
 38765 48682 48683    1
 38766 48682 48684    1
 38767 48685 48686    1
 38768 48685 48687    1
 38769 48688 48689    1
 38770 48688 48690    1
 38771 48691 48692    1
 38772 48691 48693    1
 38773 48694 48695    1
 38774 48694 48696    1
 38775 48697 48698    1
 38776 48697 48699    1
 38777 48700 48701    1
 38778 48700 48702    1
 38779 48703 48704    1
 38780 48703 48705    1
 38781 48706 48707    1
 38782 48706 48708    1
 38783 48709 48710    1
 38784 48709 48711    1
 38785 48712 48713    1
 38786 48712 48714    1
 38787 48715 48716    1
 38788 48715 48717    1
 38789 48718 48719    1
 38790 48718 48720    1
 38791 48721 48722    1
 38792 48721 48723    1
 38793 48724 48725    1
 38794 48724 48726    1
 38795 48727 48728    1
 38796 48727 48729    1
 38797 48730 48731    1
 38798 48730 48732    1
 38799 48733 48734    1
 38800 48733 48735    1
 38801 48736 48737    1
 38802 48736 48738    1
 38803 48739 48740    1
 38804 48739 48741    1
 38805 48742 48743    1
 38806 48742 48744    1
 38807 48745 48746    1
 38808 48745 48747    1
 38809 48748 48749    1
 38810 48748 48750    1
 38811 48751 48752    1
 38812 48751 48753    1
 38813 48754 48755    1
 38814 48754 48756    1
 38815 48757 48758    1
 38816 48757 48759    1
 38817 48760 48761    1
 38818 48760 48762    1
 38819 48763 48764    1
 38820 48763 48765    1
 38821 48766 48767    1
 38822 48766 48768    1
 38823 48769 48770    1
 38824 48769 48771    1
 38825 48772 48773    1
 38826 48772 48774    1
 38827 48775 48776    1
 38828 48775 48777    1
 38829 48778 48779    1
 38830 48778 48780    1
 38831 48781 48782    1
 38832 48781 48783    1
 38833 48784 48785    1
 38834 48784 48786    1
 38835 48787 48788    1
 38836 48787 48789    1
 38837 48790 48791    1
 38838 48790 48792    1
 38839 48793 48794    1
 38840 48793 48795    1
 38841 48796 48797    1
 38842 48796 48798    1
 38843 48799 48800    1
 38844 48799 48801    1
 38845 48802 48803    1
 38846 48802 48804    1
 38847 48805 48806    1
 38848 48805 48807    1
 38849 48808 48809    1
 38850 48808 48810    1
 38851 48811 48812    1
 38852 48811 48813    1
 38853 48814 48815    1
 38854 48814 48816    1
 38855 48817 48818    1
 38856 48817 48819    1
 38857 48820 48821    1
 38858 48820 48822    1
 38859 48823 48824    1
 38860 48823 48825    1
 38861 48826 48827    1
 38862 48826 48828    1
 38863 48829 48830    1
 38864 48829 48831    1
 38865 48832 48833    1
 38866 48832 48834    1
 38867 48835 48836    1
 38868 48835 48837    1
 38869 48838 48839    1
 38870 48838 48840    1
 38871 48841 48842    1
 38872 48841 48843    1
 38873 48844 48845    1
 38874 48844 48846    1
 38875 48847 48848    1
 38876 48847 48849    1
 38877 48850 48851    1
 38878 48850 48852    1
 38879 48853 48854    1
 38880 48853 48855    1
 38881 48856 48857    1
 38882 48856 48858    1
 38883 48859 48860    1
 38884 48859 48861    1
 38885 48862 48863    1
 38886 48862 48864    1
 38887 48865 48866    1
 38888 48865 48867    1
 38889 48868 48869    1
 38890 48868 48870    1
 38891 48871 48872    1
 38892 48871 48873    1
 38893 48874 48875    1
 38894 48874 48876    1
 38895 48877 48878    1
 38896 48877 48879    1
 38897 48880 48881    1
 38898 48880 48882    1
 38899 48883 48884    1
 38900 48883 48885    1
 38901 48886 48887    1
 38902 48886 48888    1
 38903 48889 48890    1
 38904 48889 48891    1
 38905 48892 48893    1
 38906 48892 48894    1
 38907 48895 48896    1
 38908 48895 48897    1
 38909 48898 48899    1
 38910 48898 48900    1
 38911 48901 48902    1
 38912 48901 48903    1
 38913 48904 48905    1
 38914 48904 48906    1
 38915 48907 48908    1
 38916 48907 48909    1
 38917 48910 48911    1
 38918 48910 48912    1
 38919 48913 48914    1
 38920 48913 48915    1
 38921 48916 48917    1
 38922 48916 48918    1
 38923 48919 48920    1
 38924 48919 48921    1
 38925 48922 48923    1
 38926 48922 48924    1
 38927 48925 48926    1
 38928 48925 48927    1
 38929 48928 48929    1
 38930 48928 48930    1
 38931 48931 48932    1
 38932 48931 48933    1
 38933 48934 48935    1
 38934 48934 48936    1
 38935 48937 48938    1
 38936 48937 48939    1
 38937 48940 48941    1
 38938 48940 48942    1
 38939 48943 48944    1
 38940 48943 48945    1
 38941 48946 48947    1
 38942 48946 48948    1
 38943 48949 48950    1
 38944 48949 48951    1
 38945 48952 48953    1
 38946 48952 48954    1
 38947 48955 48956    1
 38948 48955 48957    1
 38949 48958 48959    1
 38950 48958 48960    1
 38951 48961 48962    1
 38952 48961 48963    1
 38953 48964 48965    1
 38954 48964 48966    1
 38955 48967 48968    1
 38956 48967 48969    1
 38957 48970 48971    1
 38958 48970 48972    1
 38959 48973 48974    1
 38960 48973 48975    1
 38961 48976 48977    1
 38962 48976 48978    1
 38963 48979 48980    1
 38964 48979 48981    1
 38965 48982 48983    1
 38966 48982 48984    1
 38967 48985 48986    1
 38968 48985 48987    1
 38969 48988 48989    1
 38970 48988 48990    1
 38971 48991 48992    1
 38972 48991 48993    1
 38973 48994 48995    1
 38974 48994 48996    1
 38975 48997 48998    1
 38976 48997 48999    1
 38977 49000 49001    1
 38978 49000 49002    1
 38979 49003 49004    1
 38980 49003 49005    1
 38981 49006 49007    1
 38982 49006 49008    1
 38983 49009 49010    1
 38984 49009 49011    1
 38985 49012 49013    1
 38986 49012 49014    1
 38987 49015 49016    1
 38988 49015 49017    1
 38989 49018 49019    1
 38990 49018 49020    1
 38991 49021 49022    1
 38992 49021 49023    1
 38993 49024 49025    1
 38994 49024 49026    1
 38995 49027 49028    1
 38996 49027 49029    1
 38997 49030 49031    1
 38998 49030 49032    1
 38999 49033 49034    1
 39000 49033 49035    1
 39001 49036 49037    1
 39002 49036 49038    1
 39003 49039 49040    1
 39004 49039 49041    1
 39005 49042 49043    1
 39006 49042 49044    1
 39007 49045 49046    1
 39008 49045 49047    1
 39009 49048 49049    1
 39010 49048 49050    1
 39011 49051 49052    1
 39012 49051 49053    1
 39013 49054 49055    1
 39014 49054 49056    1
 39015 49057 49058    1
 39016 49057 49059    1
 39017 49060 49061    1
 39018 49060 49062    1
 39019 49063 49064    1
 39020 49063 49065    1
 39021 49066 49067    1
 39022 49066 49068    1
 39023 49069 49070    1
 39024 49069 49071    1
 39025 49072 49073    1
 39026 49072 49074    1
 39027 49075 49076    1
 39028 49075 49077    1
 39029 49078 49079    1
 39030 49078 49080    1
 39031 49081 49082    1
 39032 49081 49083    1
 39033 49084 49085    1
 39034 49084 49086    1
 39035 49087 49088    1
 39036 49087 49089    1
 39037 49090 49091    1
 39038 49090 49092    1
 39039 49093 49094    1
 39040 49093 49095    1
 39041 49096 49097    1
 39042 49096 49098    1
 39043 49099 49100    1
 39044 49099 49101    1
 39045 49102 49103    1
 39046 49102 49104    1
 39047 49105 49106    1
 39048 49105 49107    1
 39049 49108 49109    1
 39050 49108 49110    1
 39051 49111 49112    1
 39052 49111 49113    1
 39053 49114 49115    1
 39054 49114 49116    1
 39055 49117 49118    1
 39056 49117 49119    1
 39057 49120 49121    1
 39058 49120 49122    1
 39059 49123 49124    1
 39060 49123 49125    1
 39061 49126 49127    1
 39062 49126 49128    1
 39063 49129 49130    1
 39064 49129 49131    1
 39065 49132 49133    1
 39066 49132 49134    1
 39067 49135 49136    1
 39068 49135 49137    1
 39069 49138 49139    1
 39070 49138 49140    1
 39071 49141 49142    1
 39072 49141 49143    1
 39073 49144 49145    1
 39074 49144 49146    1
 39075 49147 49148    1
 39076 49147 49149    1
 39077 49150 49151    1
 39078 49150 49152    1
 39079 49153 49154    1
 39080 49153 49155    1
 39081 49156 49157    1
 39082 49156 49158    1
 39083 49159 49160    1
 39084 49159 49161    1
 39085 49162 49163    1
 39086 49162 49164    1
 39087 49165 49166    1
 39088 49165 49167    1
 39089 49168 49169    1
 39090 49168 49170    1
 39091 49171 49172    1
 39092 49171 49173    1
 39093 49174 49175    1
 39094 49174 49176    1
 39095 49177 49178    1
 39096 49177 49179    1
 39097 49180 49181    1
 39098 49180 49182    1
 39099 49183 49184    1
 39100 49183 49185    1
 39101 49186 49187    1
 39102 49186 49188    1
 39103 49189 49190    1
 39104 49189 49191    1
 39105 49192 49193    1
 39106 49192 49194    1
 39107 49195 49196    1
 39108 49195 49197    1
 39109 49198 49199    1
 39110 49198 49200    1
 39111 49201 49202    1
 39112 49201 49203    1
 39113 49204 49205    1
 39114 49204 49206    1
 39115 49207 49208    1
 39116 49207 49209    1
 39117 49210 49211    1
 39118 49210 49212    1
 39119 49213 49214    1
 39120 49213 49215    1
 39121 49216 49217    1
 39122 49216 49218    1
 39123 49219 49220    1
 39124 49219 49221    1
 39125 49222 49223    1
 39126 49222 49224    1
 39127 49225 49226    1
 39128 49225 49227    1
 39129 49228 49229    1
 39130 49228 49230    1
 39131 49231 49232    1
 39132 49231 49233    1
 39133 49234 49235    1
 39134 49234 49236    1
 39135 49237 49238    1
 39136 49237 49239    1
 39137 49240 49241    1
 39138 49240 49242    1
 39139 49243 49244    1
 39140 49243 49245    1
 39141 49246 49247    1
 39142 49246 49248    1
 39143 49249 49250    1
 39144 49249 49251    1
 39145 49252 49253    1
 39146 49252 49254    1
 39147 49255 49256    1
 39148 49255 49257    1
 39149 49258 49259    1
 39150 49258 49260    1
 39151 49261 49262    1
 39152 49261 49263    1
 39153 49264 49265    1
 39154 49264 49266    1
 39155 49267 49268    1
 39156 49267 49269    1
 39157 49270 49271    1
 39158 49270 49272    1
 39159 49273 49274    1
 39160 49273 49275    1
 39161 49276 49277    1
 39162 49276 49278    1
 39163 49279 49280    1
 39164 49279 49281    1
 39165 49282 49283    1
 39166 49282 49284    1
 39167 49285 49286    1
 39168 49285 49287    1
 39169 49288 49289    1
 39170 49288 49290    1
 39171 49291 49292    1
 39172 49291 49293    1
 39173 49294 49295    1
 39174 49294 49296    1
 39175 49297 49298    1
 39176 49297 49299    1
 39177 49300 49301    1
 39178 49300 49302    1
 39179 49303 49304    1
 39180 49303 49305    1
 39181 49306 49307    1
 39182 49306 49308    1
 39183 49309 49310    1
 39184 49309 49311    1
 39185 49312 49313    1
 39186 49312 49314    1
 39187 49315 49316    1
 39188 49315 49317    1
 39189 49318 49319    1
 39190 49318 49320    1
 39191 49321 49322    1
 39192 49321 49323    1
 39193 49324 49325    1
 39194 49324 49326    1
 39195 49327 49328    1
 39196 49327 49329    1
 39197 49330 49331    1
 39198 49330 49332    1
 39199 49333 49334    1
 39200 49333 49335    1
 39201 49336 49337    1
 39202 49336 49338    1
 39203 49339 49340    1
 39204 49339 49341    1
 39205 49342 49343    1
 39206 49342 49344    1
 39207 49345 49346    1
 39208 49345 49347    1
 39209 49348 49349    1
 39210 49348 49350    1
 39211 49351 49352    1
 39212 49351 49353    1
 39213 49354 49355    1
 39214 49354 49356    1
 39215 49357 49358    1
 39216 49357 49359    1
 39217 49360 49361    1
 39218 49360 49362    1
 39219 49363 49364    1
 39220 49363 49365    1
 39221 49366 49367    1
 39222 49366 49368    1
 39223 49369 49370    1
 39224 49369 49371    1
 39225 49372 49373    1
 39226 49372 49374    1
 39227 49375 49376    1
 39228 49375 49377    1
 39229 49378 49379    1
 39230 49378 49380    1
 39231 49381 49382    1
 39232 49381 49383    1
 39233 49384 49385    1
 39234 49384 49386    1
 39235 49387 49388    1
 39236 49387 49389    1
 39237 49390 49391    1
 39238 49390 49392    1
 39239 49393 49394    1
 39240 49393 49395    1
 39241 49396 49397    1
 39242 49396 49398    1
 39243 49399 49400    1
 39244 49399 49401    1
 39245 49402 49403    1
 39246 49402 49404    1
 39247 49405 49406    1
 39248 49405 49407    1
 39249 49408 49409    1
 39250 49408 49410    1
 39251 49411 49412    1
 39252 49411 49413    1
 39253 49414 49415    1
 39254 49414 49416    1
 39255 49417 49418    1
 39256 49417 49419    1
 39257 49420 49421    1
 39258 49420 49422    1
 39259 49423 49424    1
 39260 49423 49425    1
 39261 49426 49427    1
 39262 49426 49428    1
 39263 49429 49430    1
 39264 49429 49431    1
 39265 49432 49433    1
 39266 49432 49434    1
 39267 49435 49436    1
 39268 49435 49437    1
 39269 49438 49439    1
 39270 49438 49440    1
 39271 49441 49442    1
 39272 49441 49443    1
 39273 49444 49445    1
 39274 49444 49446    1
 39275 49447 49448    1
 39276 49447 49449    1
 39277 49450 49451    1
 39278 49450 49452    1
 39279 49453 49454    1
 39280 49453 49455    1
 39281 49456 49457    1
 39282 49456 49458    1
 39283 49459 49460    1
 39284 49459 49461    1
 39285 49462 49463    1
 39286 49462 49464    1
 39287 49465 49466    1
 39288 49465 49467    1
 39289 49468 49469    1
 39290 49468 49470    1
 39291 49471 49472    1
 39292 49471 49473    1
 39293 49474 49475    1
 39294 49474 49476    1
 39295 49477 49478    1
 39296 49477 49479    1
 39297 49480 49481    1
 39298 49480 49482    1
 39299 49483 49484    1
 39300 49483 49485    1
 39301 49486 49487    1
 39302 49486 49488    1
 39303 49489 49490    1
 39304 49489 49491    1
 39305 49492 49493    1
 39306 49492 49494    1
 39307 49495 49496    1
 39308 49495 49497    1
 39309 49498 49499    1
 39310 49498 49500    1
 39311 49501 49502    1
 39312 49501 49503    1
 39313 49504 49505    1
 39314 49504 49506    1
 39315 49507 49508    1
 39316 49507 49509    1
 39317 49510 49511    1
 39318 49510 49512    1
 39319 49513 49514    1
 39320 49513 49515    1
 39321 49516 49517    1
 39322 49516 49518    1
 39323 49519 49520    1
 39324 49519 49521    1
 39325 49522 49523    1
 39326 49522 49524    1
 39327 49525 49526    1
 39328 49525 49527    1
 39329 49528 49529    1
 39330 49528 49530    1
 39331 49531 49532    1
 39332 49531 49533    1
 39333 49534 49535    1
 39334 49534 49536    1
 39335 49537 49538    1
 39336 49537 49539    1
 39337 49540 49541    1
 39338 49540 49542    1
 39339 49543 49544    1
 39340 49543 49545    1
 39341 49546 49547    1
 39342 49546 49548    1
 39343 49549 49550    1
 39344 49549 49551    1
 39345 49552 49553    1
 39346 49552 49554    1
 39347 49555 49556    1
 39348 49555 49557    1
 39349 49558 49559    1
 39350 49558 49560    1
 39351 49561 49562    1
 39352 49561 49563    1
 39353 49564 49565    1
 39354 49564 49566    1
 39355 49567 49568    1
 39356 49567 49569    1
 39357 49570 49571    1
 39358 49570 49572    1
 39359 49573 49574    1
 39360 49573 49575    1
 39361 49576 49577    1
 39362 49576 49578    1
 39363 49579 49580    1
 39364 49579 49581    1
 39365 49582 49583    1
 39366 49582 49584    1
 39367 49585 49586    1
 39368 49585 49587    1
 39369 49588 49589    1
 39370 49588 49590    1
 39371 49591 49592    1
 39372 49591 49593    1
 39373 49594 49595    1
 39374 49594 49596    1
 39375 49597 49598    1
 39376 49597 49599    1
 39377 49600 49601    1
 39378 49600 49602    1
 39379 49603 49604    1
 39380 49603 49605    1
 39381 49606 49607    1
 39382 49606 49608    1
 39383 49609 49610    1
 39384 49609 49611    1
 39385 49612 49613    1
 39386 49612 49614    1
 39387 49615 49616    1
 39388 49615 49617    1
 39389 49618 49619    1
 39390 49618 49620    1
 39391 49621 49622    1
 39392 49621 49623    1
 39393 49624 49625    1
 39394 49624 49626    1
 39395 49627 49628    1
 39396 49627 49629    1
 39397 49630 49631    1
 39398 49630 49632    1
 39399 49633 49634    1
 39400 49633 49635    1
 39401 49636 49637    1
 39402 49636 49638    1
 39403 49639 49640    1
 39404 49639 49641    1
 39405 49642 49643    1
 39406 49642 49644    1
 39407 49645 49646    1
 39408 49645 49647    1
 39409 49648 49649    1
 39410 49648 49650    1
 39411 49651 49652    1
 39412 49651 49653    1
 39413 49654 49655    1
 39414 49654 49656    1
 39415 49657 49658    1
 39416 49657 49659    1
 39417 49660 49661    1
 39418 49660 49662    1
 39419 49663 49664    1
 39420 49663 49665    1
 39421 49666 49667    1
 39422 49666 49668    1
 39423 49669 49670    1
 39424 49669 49671    1
 39425 49672 49673    1
 39426 49672 49674    1
 39427 49675 49676    1
 39428 49675 49677    1
 39429 49678 49679    1
 39430 49678 49680    1
 39431 49681 49682    1
 39432 49681 49683    1
 39433 49684 49685    1
 39434 49684 49686    1
 39435 49687 49688    1
 39436 49687 49689    1
 39437 49690 49691    1
 39438 49690 49692    1
 39439 49693 49694    1
 39440 49693 49695    1
 39441 49696 49697    1
 39442 49696 49698    1
 39443 49699 49700    1
 39444 49699 49701    1
 39445 49702 49703    1
 39446 49702 49704    1
 39447 49705 49706    1
 39448 49705 49707    1
 39449 49708 49709    1
 39450 49708 49710    1
 39451 49711 49712    1
 39452 49711 49713    1
 39453 49714 49715    1
 39454 49714 49716    1
 39455 49717 49718    1
 39456 49717 49719    1
 39457 49720 49721    1
 39458 49720 49722    1
 39459 49723 49724    1
 39460 49723 49725    1
 39461 49726 49727    1
 39462 49726 49728    1
 39463 49729 49730    1
 39464 49729 49731    1
 39465 49732 49733    1
 39466 49732 49734    1
 39467 49735 49736    1
 39468 49735 49737    1
 39469 49738 49739    1
 39470 49738 49740    1
 39471 49741 49742    1
 39472 49741 49743    1
 39473 49744 49745    1
 39474 49744 49746    1
 39475 49747 49748    1
 39476 49747 49749    1
 39477 49750 49751    1
 39478 49750 49752    1
 39479 49753 49754    1
 39480 49753 49755    1
 39481 49756 49757    1
 39482 49756 49758    1
 39483 49759 49760    1
 39484 49759 49761    1
 39485 49762 49763    1
 39486 49762 49764    1
 39487 49765 49766    1
 39488 49765 49767    1
 39489 49768 49769    1
 39490 49768 49770    1
 39491 49771 49772    1
 39492 49771 49773    1
 39493 49774 49775    1
 39494 49774 49776    1
 39495 49777 49778    1
 39496 49777 49779    1
 39497 49780 49781    1
 39498 49780 49782    1
 39499 49783 49784    1
 39500 49783 49785    1
 39501 49786 49787    1
 39502 49786 49788    1
 39503 49789 49790    1
 39504 49789 49791    1
 39505 49792 49793    1
 39506 49792 49794    1
 39507 49795 49796    1
 39508 49795 49797    1
 39509 49798 49799    1
 39510 49798 49800    1
 39511 49801 49802    1
 39512 49801 49803    1
 39513 49804 49805    1
 39514 49804 49806    1
 39515 49807 49808    1
 39516 49807 49809    1
 39517 49810 49811    1
 39518 49810 49812    1
 39519 49813 49814    1
 39520 49813 49815    1
 39521 49816 49817    1
 39522 49816 49818    1
 39523 49819 49820    1
 39524 49819 49821    1
 39525 49822 49823    1
 39526 49822 49824    1
 39527 49825 49826    1
 39528 49825 49827    1
 39529 49828 49829    1
 39530 49828 49830    1
 39531 49831 49832    1
 39532 49831 49833    1
 39533 49834 49835    1
 39534 49834 49836    1
 39535 49837 49838    1
 39536 49837 49839    1
 39537 49840 49841    1
 39538 49840 49842    1
 39539 49843 49844    1
 39540 49843 49845    1
 39541 49846 49847    1
 39542 49846 49848    1
 39543 49849 49850    1
 39544 49849 49851    1
 39545 49852 49853    1
 39546 49852 49854    1
 39547 49855 49856    1
 39548 49855 49857    1
 39549 49858 49859    1
 39550 49858 49860    1
 39551 49861 49862    1
 39552 49861 49863    1
 39553 49864 49865    1
 39554 49864 49866    1
 39555 49867 49868    1
 39556 49867 49869    1
 39557 49870 49871    1
 39558 49870 49872    1
 39559 49873 49874    1
 39560 49873 49875    1
 39561 49876 49877    1
 39562 49876 49878    1
 39563 49879 49880    1
 39564 49879 49881    1
 39565 49882 49883    1
 39566 49882 49884    1
 39567 49885 49886    1
 39568 49885 49887    1
 39569 49888 49889    1
 39570 49888 49890    1
 39571 49891 49892    1
 39572 49891 49893    1
 39573 49894 49895    1
 39574 49894 49896    1
 39575 49897 49898    1
 39576 49897 49899    1
 39577 49900 49901    1
 39578 49900 49902    1
 39579 49903 49904    1
 39580 49903 49905    1
 39581 49906 49907    1
 39582 49906 49908    1
 39583 49909 49910    1
 39584 49909 49911    1
 39585 49912 49913    1
 39586 49912 49914    1
 39587 49915 49916    1
 39588 49915 49917    1
 39589 49918 49919    1
 39590 49918 49920    1
 39591 49921 49922    1
 39592 49921 49923    1
 39593 49924 49925    1
 39594 49924 49926    1
 39595 49927 49928    1
 39596 49927 49929    1
 39597 49930 49931    1
 39598 49930 49932    1
 39599 49933 49934    1
 39600 49933 49935    1
 39601 49936 49937    1
 39602 49936 49938    1
 39603 49939 49940    1
 39604 49939 49941    1
 39605 49942 49943    1
 39606 49942 49944    1
 39607 49945 49946    1
 39608 49945 49947    1
 39609 49948 49949    1
 39610 49948 49950    1
 39611 49951 49952    1
 39612 49951 49953    1
 39613 49954 49955    1
 39614 49954 49956    1
 39615 49957 49958    1
 39616 49957 49959    1
 39617 49960 49961    1
 39618 49960 49962    1
 39619 49963 49964    1
 39620 49963 49965    1
 39621 49966 49967    1
 39622 49966 49968    1
 39623 49969 49970    1
 39624 49969 49971    1
 39625 49972 49973    1
 39626 49972 49974    1
 39627 49975 49976    1
 39628 49975 49977    1
 39629 49978 49979    1
 39630 49978 49980    1
 39631 49981 49982    1
 39632 49981 49983    1
 39633 49984 49985    1
 39634 49984 49986    1
 39635 49987 49988    1
 39636 49987 49989    1
 39637 49990 49991    1
 39638 49990 49992    1
 39639 49993 49994    1
 39640 49993 49995    1
 39641 49996 49997    1
 39642 49996 49998    1
 39643 49999 50000    1
 39644 49999 50001    1
 39645 50002 50003    1
 39646 50002 50004    1
 39647 50005 50006    1
 39648 50005 50007    1
 39649 50008 50009    1
 39650 50008 50010    1
 39651 50011 50012    1
 39652 50011 50013    1
 39653 50014 50015    1
 39654 50014 50016    1
 39655 50017 50018    1
 39656 50017 50019    1
 39657 50020 50021    1
 39658 50020 50022    1
 39659 50023 50024    1
 39660 50023 50025    1
 39661 50026 50027    1
 39662 50026 50028    1
 39663 50029 50030    1
 39664 50029 50031    1
 39665 50032 50033    1
 39666 50032 50034    1
 39667 50035 50036    1
 39668 50035 50037    1
 39669 50038 50039    1
 39670 50038 50040    1
 39671 50041 50042    1
 39672 50041 50043    1
 39673 50044 50045    1
 39674 50044 50046    1
 39675 50047 50048    1
 39676 50047 50049    1
 39677 50050 50051    1
 39678 50050 50052    1
 39679 50053 50054    1
 39680 50053 50055    1
 39681 50056 50057    1
 39682 50056 50058    1
 39683 50059 50060    1
 39684 50059 50061    1
 39685 50062 50063    1
 39686 50062 50064    1
 39687 50065 50066    1
 39688 50065 50067    1
 39689 50068 50069    1
 39690 50068 50070    1
 39691 50071 50072    1
 39692 50071 50073    1
 39693 50074 50075    1
 39694 50074 50076    1
 39695 50077 50078    1
 39696 50077 50079    1
 39697 50080 50081    1
 39698 50080 50082    1
 39699 50083 50084    1
 39700 50083 50085    1
 39701 50086 50087    1
 39702 50086 50088    1
 39703 50089 50090    1
 39704 50089 50091    1
 39705 50092 50093    1
 39706 50092 50094    1
 39707 50095 50096    1
 39708 50095 50097    1
 39709 50098 50099    1
 39710 50098 50100    1
 39711 50101 50102    1
 39712 50101 50103    1
 39713 50104 50105    1
 39714 50104 50106    1
 39715 50107 50108    1
 39716 50107 50109    1
 39717 50110 50111    1
 39718 50110 50112    1
 39719 50113 50114    1
 39720 50113 50115    1
 39721 50116 50117    1
 39722 50116 50118    1
 39723 50119 50120    1
 39724 50119 50121    1
 39725 50122 50123    1
 39726 50122 50124    1
 39727 50125 50126    1
 39728 50125 50127    1
 39729 50128 50129    1
 39730 50128 50130    1
 39731 50131 50132    1
 39732 50131 50133    1
 39733 50134 50135    1
 39734 50134 50136    1
 39735 50137 50138    1
 39736 50137 50139    1
 39737 50140 50141    1
 39738 50140 50142    1
 39739 50143 50144    1
 39740 50143 50145    1
 39741 50146 50147    1
 39742 50146 50148    1
 39743 50149 50150    1
 39744 50149 50151    1
 39745 50152 50153    1
 39746 50152 50154    1
 39747 50155 50156    1
 39748 50155 50157    1
 39749 50158 50159    1
 39750 50158 50160    1
 39751 50161 50162    1
 39752 50161 50163    1
 39753 50164 50165    1
 39754 50164 50166    1
 39755 50167 50168    1
 39756 50167 50169    1
 39757 50170 50171    1
 39758 50170 50172    1
 39759 50173 50174    1
 39760 50173 50175    1
 39761 50176 50177    1
 39762 50176 50178    1
 39763 50179 50180    1
 39764 50179 50181    1
 39765 50182 50183    1
 39766 50182 50184    1
 39767 50185 50186    1
 39768 50185 50187    1
 39769 50188 50189    1
 39770 50188 50190    1
 39771 50191 50192    1
 39772 50191 50193    1
 39773 50194 50195    1
 39774 50194 50196    1
 39775 50197 50198    1
 39776 50197 50199    1
 39777 50200 50201    1
 39778 50200 50202    1
 39779 50203 50204    1
 39780 50203 50205    1
 39781 50206 50207    1
 39782 50206 50208    1
 39783 50209 50210    1
 39784 50209 50211    1
 39785 50212 50213    1
 39786 50212 50214    1
 39787 50215 50216    1
 39788 50215 50217    1
 39789 50218 50219    1
 39790 50218 50220    1
 39791 50221 50222    1
 39792 50221 50223    1
 39793 50224 50225    1
 39794 50224 50226    1
 39795 50227 50228    1
 39796 50227 50229    1
 39797 50230 50231    1
 39798 50230 50232    1
 39799 50233 50234    1
 39800 50233 50235    1
 39801 50236 50237    1
 39802 50236 50238    1
 39803 50239 50240    1
 39804 50239 50241    1
 39805 50242 50243    1
 39806 50242 50244    1
 39807 50245 50246    1
 39808 50245 50247    1
 39809 50248 50249    1
 39810 50248 50250    1
 39811 50251 50252    1
 39812 50251 50253    1
 39813 50254 50255    1
 39814 50254 50256    1
 39815 50257 50258    1
 39816 50257 50259    1
 39817 50260 50261    1
 39818 50260 50262    1
 39819 50263 50264    1
 39820 50263 50265    1
 39821 50266 50267    1
 39822 50266 50268    1
 39823 50269 50270    1
 39824 50269 50271    1
 39825 50272 50273    1
 39826 50272 50274    1
 39827 50275 50276    1
 39828 50275 50277    1
 39829 50278 50279    1
 39830 50278 50280    1
 39831 50281 50282    1
 39832 50281 50283    1
 39833 50284 50285    1
 39834 50284 50286    1
 39835 50287 50288    1
 39836 50287 50289    1
 39837 50290 50291    1
 39838 50290 50292    1
 39839 50293 50294    1
 39840 50293 50295    1
 39841 50296 50297    1
 39842 50296 50298    1
 39843 50299 50300    1
 39844 50299 50301    1
 39845 50302 50303    1
 39846 50302 50304    1
 39847 50305 50306    1
 39848 50305 50307    1
 39849 50308 50309    1
 39850 50308 50310    1
 39851 50311 50312    1
 39852 50311 50313    1
 39853 50314 50315    1
 39854 50314 50316    1
 39855 50317 50318    1
 39856 50317 50319    1
 39857 50320 50321    1
 39858 50320 50322    1
 39859 50323 50324    1
 39860 50323 50325    1
 39861 50326 50327    1
 39862 50326 50328    1
 39863 50329 50330    1
 39864 50329 50331    1
 39865 50332 50333    1
 39866 50332 50334    1
 39867 50335 50336    1
 39868 50335 50337    1
 39869 50338 50339    1
 39870 50338 50340    1
 39871 50341 50342    1
 39872 50341 50343    1
 39873 50344 50345    1
 39874 50344 50346    1
 39875 50347 50348    1
 39876 50347 50349    1
 39877 50350 50351    1
 39878 50350 50352    1
 39879 50353 50354    1
 39880 50353 50355    1
 39881 50356 50357    1
 39882 50356 50358    1
 39883 50359 50360    1
 39884 50359 50361    1
 39885 50362 50363    1
 39886 50362 50364    1
 39887 50365 50366    1
 39888 50365 50367    1
 39889 50368 50369    1
 39890 50368 50370    1
 39891 50371 50372    1
 39892 50371 50373    1
 39893 50374 50375    1
 39894 50374 50376    1
 39895 50377 50378    1
 39896 50377 50379    1
 39897 50380 50381    1
 39898 50380 50382    1
 39899 50383 50384    1
 39900 50383 50385    1
 39901 50386 50387    1
 39902 50386 50388    1
@<TRIPOS>SUBSTRUCTURE
1 DAL1 1 RESIDUE 1 A DAL
2 ALA2 11 RESIDUE 1 A ALA
3 ALA3 21 RESIDUE 1 A ALA
4 ALA4 31 RESIDUE 1 A ALA
5 MAL5 41 RESIDUE 1 A MAL
6 MAL6 54 RESIDUE 1 A MAL
7 POP1 67 RESIDUE 1 B POP
8 POP2 201 RESIDUE 1 B POP
9 POP3 335 RESIDUE 1 B POP
10 POP4 469 RESIDUE 1 B POP
11 POP5 603 RESIDUE 1 B POP
12 POP6 737 RESIDUE 1 B POP
13 POP7 871 RESIDUE 1 B POP
14 POP8 1005 RESIDUE 1 B POP
15 POP9 1139 RESIDUE 1 B POP
16 POP10 1273 RESIDUE 1 B POP
17 POP11 1407 RESIDUE 1 B POP
18 POP12 1541 RESIDUE 1 B POP
19 POP13 1675 RESIDUE 1 B POP
20 POP14 1809 RESIDUE 1 B POP
21 POP15 1943 RESIDUE 1 B POP
22 POP16 2077 RESIDUE 1 B POP
23 POP17 2211 RESIDUE 1 B POP
24 POP18 2345 RESIDUE 1 B POP
25 POP19 2479 RESIDUE 1 B POP
26 POP20 2613 RESIDUE 1 B POP
27 POP21 2747 RESIDUE 1 B POP
28 POP22 2881 RESIDUE 1 B POP
29 POP23 3015 RESIDUE 1 B POP
30 POP24 3149 RESIDUE 1 B POP
31 POP25 3283 RESIDUE 1 B POP
32 POP26 3417 RESIDUE 1 B POP
33 POP27 3551 RESIDUE 1 B POP
34 POP28 3685 RESIDUE 1 B POP
35 POP29 3819 RESIDUE 1 B POP
36 POP30 3953 RESIDUE 1 B POP
37 POP31 4087 RESIDUE 1 B POP
38 POP32 4221 RESIDUE 1 B POP
39 POP33 4355 RESIDUE 1 B POP
40 POP34 4489 RESIDUE 1 B POP
41 POP35 4623 RESIDUE 1 B POP
42 POP36 4757 RESIDUE 1 B POP
43 POP37 4891 RESIDUE 1 B POP
44 POP38 5025 RESIDUE 1 B POP
45 POP39 5159 RESIDUE 1 B POP
46 POP40 5293 RESIDUE 1 B POP
47 POP41 5427 RESIDUE 1 B POP
48 POP42 5561 RESIDUE 1 B POP
49 POP43 5695 RESIDUE 1 B POP
50 POP44 5829 RESIDUE 1 B POP
51 POP45 5963 RESIDUE 1 B POP
52 POP46 6097 RESIDUE 1 B POP
53 POP47 6231 RESIDUE 1 B POP
54 POP48 6365 RESIDUE 1 B POP
55 POP49 6499 RESIDUE 1 B POP
56 POP50 6633 RESIDUE 1 B POP
57 POP51 6767 RESIDUE 1 B POP
58 POP52 6901 RESIDUE 1 B POP
59 POP53 7035 RESIDUE 1 B POP
60 POP54 7169 RESIDUE 1 B POP
61 POP55 7303 RESIDUE 1 B POP
62 POP56 7437 RESIDUE 1 B POP
63 POP57 7571 RESIDUE 1 B POP
64 POP58 7705 RESIDUE 1 B POP
65 POP59 7839 RESIDUE 1 B POP
66 POP60 7973 RESIDUE 1 B POP
67 POP61 8107 RESIDUE 1 B POP
68 POP62 8241 RESIDUE 1 B POP
69 POP63 8375 RESIDUE 1 B POP
70 POP64 8509 RESIDUE 1 B POP
71 POP65 8643 RESIDUE 1 B POP
72 POP66 8777 RESIDUE 1 B POP
73 POP67 8911 RESIDUE 1 B POP
74 POP68 9045 RESIDUE 1 B POP
75 POP69 9179 RESIDUE 1 B POP
76 POP70 9313 RESIDUE 1 B POP
77 POP71 9447 RESIDUE 1 B POP
78 POP72 9581 RESIDUE 1 B POP
79 POP73 9715 RESIDUE 1 B POP
80 POP74 9849 RESIDUE 1 B POP
81 POP75 9983 RESIDUE 1 B POP
82 POP76 10117 RESIDUE 1 B POP
83 POP77 10251 RESIDUE 1 B POP
84 POP78 10385 RESIDUE 1 B POP
85 POP79 10519 RESIDUE 1 B POP
86 POP80 10653 RESIDUE 1 B POP
87 POP81 10787 RESIDUE 1 B POP
88 POP82 10921 RESIDUE 1 B POP
89 POP83 11055 RESIDUE 1 B POP
90 POP84 11189 RESIDUE 1 B POP
91 POP85 11323 RESIDUE 1 B POP
92 POP86 11457 RESIDUE 1 B POP
93 POP87 11591 RESIDUE 1 B POP
94 POP88 11725 RESIDUE 1 B POP
95 POP89 11859 RESIDUE 1 B POP
96 POP90 11993 RESIDUE 1 B POP
97 POP91 12127 RESIDUE 1 B POP
98 POP92 12261 RESIDUE 1 B POP
99 POP93 12395 RESIDUE 1 B POP
100 POP94 12529 RESIDUE 1 B POP
101 POP95 12663 RESIDUE 1 B POP
102 POP96 12797 RESIDUE 1 B POP
103 POP97 12931 RESIDUE 1 B POP
104 POP98 13065 RESIDUE 1 B POP
105 POP99 13199 RESIDUE 1 B POP
106 POP100 13333 RESIDUE 1 B POP
107 POP101 13467 RESIDUE 1 B POP
108 POP102 13601 RESIDUE 1 B POP
109 POP103 13735 RESIDUE 1 B POP
110 POP104 13869 RESIDUE 1 B POP
111 POP105 14003 RESIDUE 1 B POP
112 POP106 14137 RESIDUE 1 B POP
113 POP107 14271 RESIDUE 1 B POP
114 POP108 14405 RESIDUE 1 B POP
115 POP109 14539 RESIDUE 1 B POP
116 POP110 14673 RESIDUE 1 B POP
117 POP111 14807 RESIDUE 1 B POP
118 POP112 14941 RESIDUE 1 B POP
119 POP113 15075 RESIDUE 1 B POP
120 POP114 15209 RESIDUE 1 B POP
121 POP115 15343 RESIDUE 1 B POP
122 POP116 15477 RESIDUE 1 B POP
123 POP117 15611 RESIDUE 1 B POP
124 POP118 15745 RESIDUE 1 B POP
125 POP119 15879 RESIDUE 1 B POP
126 POP120 16013 RESIDUE 1 B POP
127 POP121 16147 RESIDUE 1 B POP
128 POP122 16281 RESIDUE 1 B POP
129 POP123 16415 RESIDUE 1 B POP
130 POP124 16549 RESIDUE 1 B POP
131 POP125 16683 RESIDUE 1 B POP
132 POP126 16817 RESIDUE 1 B POP
133 POP127 16951 RESIDUE 1 B POP
134 POP128 17085 RESIDUE 1 B POP
135 POP129 17219 RESIDUE 1 B POP
136 POP130 17353 RESIDUE 1 B POP
137 POP131 17487 RESIDUE 1 B POP
138 POP132 17621 RESIDUE 1 B POP
139 POP133 17755 RESIDUE 1 B POP
140 POP134 17889 RESIDUE 1 B POP
141 POP135 18023 RESIDUE 1 B POP
142 POP136 18157 RESIDUE 1 B POP
143 POP137 18291 RESIDUE 1 B POP
144 POP138 18425 RESIDUE 1 B POP
145 POP139 18559 RESIDUE 1 B POP
146 POP140 18693 RESIDUE 1 B POP
147 POP141 18827 RESIDUE 1 B POP
148 POP142 18961 RESIDUE 1 B POP
149 POP143 19095 RESIDUE 1 B POP
150 POP144 19229 RESIDUE 1 B POP
151 TIP1 19363 RESIDUE 1 C TIP
152 TIP2 19366 RESIDUE 1 C TIP
153 TIP3 19369 RESIDUE 1 C TIP
154 TIP4 19372 RESIDUE 1 C TIP
155 TIP5 19375 RESIDUE 1 C TIP
156 TIP6 19378 RESIDUE 1 C TIP
157 TIP7 19381 RESIDUE 1 C TIP
158 TIP8 19384 RESIDUE 1 C TIP
159 TIP9 19387 RESIDUE 1 C TIP
160 TIP10 19390 RESIDUE 1 C TIP
161 TIP11 19393 RESIDUE 1 C TIP
162 TIP12 19396 RESIDUE 1 C TIP
163 TIP13 19399 RESIDUE 1 C TIP
164 TIP14 19402 RESIDUE 1 C TIP
165 TIP15 19405 RESIDUE 1 C TIP
166 TIP16 19408 RESIDUE 1 C TIP
167 TIP17 19411 RESIDUE 1 C TIP
168 TIP18 19414 RESIDUE 1 C TIP
169 TIP19 19417 RESIDUE 1 C TIP
170 TIP20 19420 RESIDUE 1 C TIP
171 TIP21 19423 RESIDUE 1 C TIP
172 TIP22 19426 RESIDUE 1 C TIP
173 TIP23 19429 RESIDUE 1 C TIP
174 TIP24 19432 RESIDUE 1 C TIP
175 TIP25 19435 RESIDUE 1 C TIP
176 TIP26 19438 RESIDUE 1 C TIP
177 TIP27 19441 RESIDUE 1 C TIP
178 TIP28 19444 RESIDUE 1 C TIP
179 TIP29 19447 RESIDUE 1 C TIP
180 TIP30 19450 RESIDUE 1 C TIP
181 TIP31 19453 RESIDUE 1 C TIP
182 TIP32 19456 RESIDUE 1 C TIP
183 TIP33 19459 RESIDUE 1 C TIP
184 TIP34 19462 RESIDUE 1 C TIP
185 TIP35 19465 RESIDUE 1 C TIP
186 TIP36 19468 RESIDUE 1 C TIP
187 TIP37 19471 RESIDUE 1 C TIP
188 TIP38 19474 RESIDUE 1 C TIP
189 TIP39 19477 RESIDUE 1 C TIP
190 TIP40 19480 RESIDUE 1 C TIP
191 TIP41 19483 RESIDUE 1 C TIP
192 TIP42 19486 RESIDUE 1 C TIP
193 TIP43 19489 RESIDUE 1 C TIP
194 TIP44 19492 RESIDUE 1 C TIP
195 TIP45 19495 RESIDUE 1 C TIP
196 TIP46 19498 RESIDUE 1 C TIP
197 TIP47 19501 RESIDUE 1 C TIP
198 TIP48 19504 RESIDUE 1 C TIP
199 TIP49 19507 RESIDUE 1 C TIP
200 TIP50 19510 RESIDUE 1 C TIP
201 TIP51 19513 RESIDUE 1 C TIP
202 TIP52 19516 RESIDUE 1 C TIP
203 TIP53 19519 RESIDUE 1 C TIP
204 TIP54 19522 RESIDUE 1 C TIP
205 TIP55 19525 RESIDUE 1 C TIP
206 TIP56 19528 RESIDUE 1 C TIP
207 TIP57 19531 RESIDUE 1 C TIP
208 TIP58 19534 RESIDUE 1 C TIP
209 TIP59 19537 RESIDUE 1 C TIP
210 TIP60 19540 RESIDUE 1 C TIP
211 TIP61 19543 RESIDUE 1 C TIP
212 TIP62 19546 RESIDUE 1 C TIP
213 TIP63 19549 RESIDUE 1 C TIP
214 TIP64 19552 RESIDUE 1 C TIP
215 TIP65 19555 RESIDUE 1 C TIP
216 TIP66 19558 RESIDUE 1 C TIP
217 TIP67 19561 RESIDUE 1 C TIP
218 TIP68 19564 RESIDUE 1 C TIP
219 TIP69 19567 RESIDUE 1 C TIP
220 TIP70 19570 RESIDUE 1 C TIP
221 TIP71 19573 RESIDUE 1 C TIP
222 TIP72 19576 RESIDUE 1 C TIP
223 TIP73 19579 RESIDUE 1 C TIP
224 TIP74 19582 RESIDUE 1 C TIP
225 TIP75 19585 RESIDUE 1 C TIP
226 TIP76 19588 RESIDUE 1 C TIP
227 TIP77 19591 RESIDUE 1 C TIP
228 TIP78 19594 RESIDUE 1 C TIP
229 TIP79 19597 RESIDUE 1 C TIP
230 TIP80 19600 RESIDUE 1 C TIP
231 TIP81 19603 RESIDUE 1 C TIP
232 TIP82 19606 RESIDUE 1 C TIP
233 TIP83 19609 RESIDUE 1 C TIP
234 TIP84 19612 RESIDUE 1 C TIP
235 TIP85 19615 RESIDUE 1 C TIP
236 TIP86 19618 RESIDUE 1 C TIP
237 TIP87 19621 RESIDUE 1 C TIP
238 TIP88 19624 RESIDUE 1 C TIP
239 TIP89 19627 RESIDUE 1 C TIP
240 TIP90 19630 RESIDUE 1 C TIP
241 TIP91 19633 RESIDUE 1 C TIP
242 TIP92 19636 RESIDUE 1 C TIP
243 TIP93 19639 RESIDUE 1 C TIP
244 TIP94 19642 RESIDUE 1 C TIP
245 TIP95 19645 RESIDUE 1 C TIP
246 TIP96 19648 RESIDUE 1 C TIP
247 TIP97 19651 RESIDUE 1 C TIP
248 TIP98 19654 RESIDUE 1 C TIP
249 TIP99 19657 RESIDUE 1 C TIP
250 TIP100 19660 RESIDUE 1 C TIP
251 TIP101 19663 RESIDUE 1 C TIP
252 TIP102 19666 RESIDUE 1 C TIP
253 TIP103 19669 RESIDUE 1 C TIP
254 TIP104 19672 RESIDUE 1 C TIP
255 TIP105 19675 RESIDUE 1 C TIP
256 TIP106 19678 RESIDUE 1 C TIP
257 TIP107 19681 RESIDUE 1 C TIP
258 TIP108 19684 RESIDUE 1 C TIP
259 TIP109 19687 RESIDUE 1 C TIP
260 TIP110 19690 RESIDUE 1 C TIP
261 TIP111 19693 RESIDUE 1 C TIP
262 TIP112 19696 RESIDUE 1 C TIP
263 TIP113 19699 RESIDUE 1 C TIP
264 TIP114 19702 RESIDUE 1 C TIP
265 TIP115 19705 RESIDUE 1 C TIP
266 TIP116 19708 RESIDUE 1 C TIP
267 TIP117 19711 RESIDUE 1 C TIP
268 TIP118 19714 RESIDUE 1 C TIP
269 TIP119 19717 RESIDUE 1 C TIP
270 TIP120 19720 RESIDUE 1 C TIP
271 TIP121 19723 RESIDUE 1 C TIP
272 TIP122 19726 RESIDUE 1 C TIP
273 TIP123 19729 RESIDUE 1 C TIP
274 TIP124 19732 RESIDUE 1 C TIP
275 TIP125 19735 RESIDUE 1 C TIP
276 TIP126 19738 RESIDUE 1 C TIP
277 TIP127 19741 RESIDUE 1 C TIP
278 TIP128 19744 RESIDUE 1 C TIP
279 TIP129 19747 RESIDUE 1 C TIP
280 TIP130 19750 RESIDUE 1 C TIP
281 TIP131 19753 RESIDUE 1 C TIP
282 TIP132 19756 RESIDUE 1 C TIP
283 TIP133 19759 RESIDUE 1 C TIP
284 TIP134 19762 RESIDUE 1 C TIP
285 TIP135 19765 RESIDUE 1 C TIP
286 TIP136 19768 RESIDUE 1 C TIP
287 TIP137 19771 RESIDUE 1 C TIP
288 TIP138 19774 RESIDUE 1 C TIP
289 TIP139 19777 RESIDUE 1 C TIP
290 TIP140 19780 RESIDUE 1 C TIP
291 TIP141 19783 RESIDUE 1 C TIP
292 TIP142 19786 RESIDUE 1 C TIP
293 TIP143 19789 RESIDUE 1 C TIP
294 TIP144 19792 RESIDUE 1 C TIP
295 TIP145 19795 RESIDUE 1 C TIP
296 TIP146 19798 RESIDUE 1 C TIP
297 TIP147 19801 RESIDUE 1 C TIP
298 TIP148 19804 RESIDUE 1 C TIP
299 TIP149 19807 RESIDUE 1 C TIP
300 TIP150 19810 RESIDUE 1 C TIP
301 TIP151 19813 RESIDUE 1 C TIP
302 TIP152 19816 RESIDUE 1 C TIP
303 TIP153 19819 RESIDUE 1 C TIP
304 TIP154 19822 RESIDUE 1 C TIP
305 TIP155 19825 RESIDUE 1 C TIP
306 TIP156 19828 RESIDUE 1 C TIP
307 TIP157 19831 RESIDUE 1 C TIP
308 TIP158 19834 RESIDUE 1 C TIP
309 TIP159 19837 RESIDUE 1 C TIP
310 TIP160 19840 RESIDUE 1 C TIP
311 TIP161 19843 RESIDUE 1 C TIP
312 TIP162 19846 RESIDUE 1 C TIP
313 TIP163 19849 RESIDUE 1 C TIP
314 TIP164 19852 RESIDUE 1 C TIP
315 TIP165 19855 RESIDUE 1 C TIP
316 TIP166 19858 RESIDUE 1 C TIP
317 TIP167 19861 RESIDUE 1 C TIP
318 TIP168 19864 RESIDUE 1 C TIP
319 TIP169 19867 RESIDUE 1 C TIP
320 TIP170 19870 RESIDUE 1 C TIP
321 TIP171 19873 RESIDUE 1 C TIP
322 TIP172 19876 RESIDUE 1 C TIP
323 TIP173 19879 RESIDUE 1 C TIP
324 TIP174 19882 RESIDUE 1 C TIP
325 TIP175 19885 RESIDUE 1 C TIP
326 TIP176 19888 RESIDUE 1 C TIP
327 TIP177 19891 RESIDUE 1 C TIP
328 TIP178 19894 RESIDUE 1 C TIP
329 TIP179 19897 RESIDUE 1 C TIP
330 TIP180 19900 RESIDUE 1 C TIP
331 TIP181 19903 RESIDUE 1 C TIP
332 TIP182 19906 RESIDUE 1 C TIP
333 TIP183 19909 RESIDUE 1 C TIP
334 TIP184 19912 RESIDUE 1 C TIP
335 TIP185 19915 RESIDUE 1 C TIP
336 TIP186 19918 RESIDUE 1 C TIP
337 TIP187 19921 RESIDUE 1 C TIP
338 TIP188 19924 RESIDUE 1 C TIP
339 TIP189 19927 RESIDUE 1 C TIP
340 TIP190 19930 RESIDUE 1 C TIP
341 TIP191 19933 RESIDUE 1 C TIP
342 TIP192 19936 RESIDUE 1 C TIP
343 TIP193 19939 RESIDUE 1 C TIP
344 TIP194 19942 RESIDUE 1 C TIP
345 TIP195 19945 RESIDUE 1 C TIP
346 TIP196 19948 RESIDUE 1 C TIP
347 TIP197 19951 RESIDUE 1 C TIP
348 TIP198 19954 RESIDUE 1 C TIP
349 TIP199 19957 RESIDUE 1 C TIP
350 TIP200 19960 RESIDUE 1 C TIP
351 TIP201 19963 RESIDUE 1 C TIP
352 TIP202 19966 RESIDUE 1 C TIP
353 TIP203 19969 RESIDUE 1 C TIP
354 TIP204 19972 RESIDUE 1 C TIP
355 TIP205 19975 RESIDUE 1 C TIP
356 TIP206 19978 RESIDUE 1 C TIP
357 TIP207 19981 RESIDUE 1 C TIP
358 TIP208 19984 RESIDUE 1 C TIP
359 TIP209 19987 RESIDUE 1 C TIP
360 TIP210 19990 RESIDUE 1 C TIP
361 TIP211 19993 RESIDUE 1 C TIP
362 TIP212 19996 RESIDUE 1 C TIP
363 TIP213 19999 RESIDUE 1 C TIP
364 TIP214 20002 RESIDUE 1 C TIP
365 TIP215 20005 RESIDUE 1 C TIP
366 TIP216 20008 RESIDUE 1 C TIP
367 TIP217 20011 RESIDUE 1 C TIP
368 TIP218 20014 RESIDUE 1 C TIP
369 TIP219 20017 RESIDUE 1 C TIP
370 TIP220 20020 RESIDUE 1 C TIP
371 TIP221 20023 RESIDUE 1 C TIP
372 TIP222 20026 RESIDUE 1 C TIP
373 TIP223 20029 RESIDUE 1 C TIP
374 TIP224 20032 RESIDUE 1 C TIP
375 TIP225 20035 RESIDUE 1 C TIP
376 TIP226 20038 RESIDUE 1 C TIP
377 TIP227 20041 RESIDUE 1 C TIP
378 TIP228 20044 RESIDUE 1 C TIP
379 TIP229 20047 RESIDUE 1 C TIP
380 TIP230 20050 RESIDUE 1 C TIP
381 TIP231 20053 RESIDUE 1 C TIP
382 TIP232 20056 RESIDUE 1 C TIP
383 TIP233 20059 RESIDUE 1 C TIP
384 TIP234 20062 RESIDUE 1 C TIP
385 TIP235 20065 RESIDUE 1 C TIP
386 TIP236 20068 RESIDUE 1 C TIP
387 TIP237 20071 RESIDUE 1 C TIP
388 TIP238 20074 RESIDUE 1 C TIP
389 TIP239 20077 RESIDUE 1 C TIP
390 TIP240 20080 RESIDUE 1 C TIP
391 TIP241 20083 RESIDUE 1 C TIP
392 TIP242 20086 RESIDUE 1 C TIP
393 TIP243 20089 RESIDUE 1 C TIP
394 TIP244 20092 RESIDUE 1 C TIP
395 TIP245 20095 RESIDUE 1 C TIP
396 TIP246 20098 RESIDUE 1 C TIP
397 TIP247 20101 RESIDUE 1 C TIP
398 TIP248 20104 RESIDUE 1 C TIP
399 TIP249 20107 RESIDUE 1 C TIP
400 TIP250 20110 RESIDUE 1 C TIP
401 TIP251 20113 RESIDUE 1 C TIP
402 TIP252 20116 RESIDUE 1 C TIP
403 TIP253 20119 RESIDUE 1 C TIP
404 TIP254 20122 RESIDUE 1 C TIP
405 TIP255 20125 RESIDUE 1 C TIP
406 TIP256 20128 RESIDUE 1 C TIP
407 TIP257 20131 RESIDUE 1 C TIP
408 TIP258 20134 RESIDUE 1 C TIP
409 TIP259 20137 RESIDUE 1 C TIP
410 TIP260 20140 RESIDUE 1 C TIP
411 TIP261 20143 RESIDUE 1 C TIP
412 TIP262 20146 RESIDUE 1 C TIP
413 TIP263 20149 RESIDUE 1 C TIP
414 TIP264 20152 RESIDUE 1 C TIP
415 TIP265 20155 RESIDUE 1 C TIP
416 TIP266 20158 RESIDUE 1 C TIP
417 TIP267 20161 RESIDUE 1 C TIP
418 TIP268 20164 RESIDUE 1 C TIP
419 TIP269 20167 RESIDUE 1 C TIP
420 TIP270 20170 RESIDUE 1 C TIP
421 TIP271 20173 RESIDUE 1 C TIP
422 TIP272 20176 RESIDUE 1 C TIP
423 TIP273 20179 RESIDUE 1 C TIP
424 TIP274 20182 RESIDUE 1 C TIP
425 TIP275 20185 RESIDUE 1 C TIP
426 TIP276 20188 RESIDUE 1 C TIP
427 TIP277 20191 RESIDUE 1 C TIP
428 TIP278 20194 RESIDUE 1 C TIP
429 TIP279 20197 RESIDUE 1 C TIP
430 TIP280 20200 RESIDUE 1 C TIP
431 TIP281 20203 RESIDUE 1 C TIP
432 TIP282 20206 RESIDUE 1 C TIP
433 TIP283 20209 RESIDUE 1 C TIP
434 TIP284 20212 RESIDUE 1 C TIP
435 TIP285 20215 RESIDUE 1 C TIP
436 TIP286 20218 RESIDUE 1 C TIP
437 TIP287 20221 RESIDUE 1 C TIP
438 TIP288 20224 RESIDUE 1 C TIP
439 TIP289 20227 RESIDUE 1 C TIP
440 TIP290 20230 RESIDUE 1 C TIP
441 TIP291 20233 RESIDUE 1 C TIP
442 TIP292 20236 RESIDUE 1 C TIP
443 TIP293 20239 RESIDUE 1 C TIP
444 TIP294 20242 RESIDUE 1 C TIP
445 TIP295 20245 RESIDUE 1 C TIP
446 TIP296 20248 RESIDUE 1 C TIP
447 TIP297 20251 RESIDUE 1 C TIP
448 TIP298 20254 RESIDUE 1 C TIP
449 TIP299 20257 RESIDUE 1 C TIP
450 TIP300 20260 RESIDUE 1 C TIP
451 TIP301 20263 RESIDUE 1 C TIP
452 TIP302 20266 RESIDUE 1 C TIP
453 TIP303 20269 RESIDUE 1 C TIP
454 TIP304 20272 RESIDUE 1 C TIP
455 TIP305 20275 RESIDUE 1 C TIP
456 TIP306 20278 RESIDUE 1 C TIP
457 TIP307 20281 RESIDUE 1 C TIP
458 TIP308 20284 RESIDUE 1 C TIP
459 TIP309 20287 RESIDUE 1 C TIP
460 TIP310 20290 RESIDUE 1 C TIP
461 TIP311 20293 RESIDUE 1 C TIP
462 TIP312 20296 RESIDUE 1 C TIP
463 TIP313 20299 RESIDUE 1 C TIP
464 TIP314 20302 RESIDUE 1 C TIP
465 TIP315 20305 RESIDUE 1 C TIP
466 TIP316 20308 RESIDUE 1 C TIP
467 TIP317 20311 RESIDUE 1 C TIP
468 TIP318 20314 RESIDUE 1 C TIP
469 TIP319 20317 RESIDUE 1 C TIP
470 TIP320 20320 RESIDUE 1 C TIP
471 TIP321 20323 RESIDUE 1 C TIP
472 TIP322 20326 RESIDUE 1 C TIP
473 TIP323 20329 RESIDUE 1 C TIP
474 TIP324 20332 RESIDUE 1 C TIP
475 TIP325 20335 RESIDUE 1 C TIP
476 TIP326 20338 RESIDUE 1 C TIP
477 TIP327 20341 RESIDUE 1 C TIP
478 TIP328 20344 RESIDUE 1 C TIP
479 TIP329 20347 RESIDUE 1 C TIP
480 TIP330 20350 RESIDUE 1 C TIP
481 TIP331 20353 RESIDUE 1 C TIP
482 TIP332 20356 RESIDUE 1 C TIP
483 TIP333 20359 RESIDUE 1 C TIP
484 TIP334 20362 RESIDUE 1 C TIP
485 TIP335 20365 RESIDUE 1 C TIP
486 TIP336 20368 RESIDUE 1 C TIP
487 TIP337 20371 RESIDUE 1 C TIP
488 TIP338 20374 RESIDUE 1 C TIP
489 TIP339 20377 RESIDUE 1 C TIP
490 TIP340 20380 RESIDUE 1 C TIP
491 TIP341 20383 RESIDUE 1 C TIP
492 TIP342 20386 RESIDUE 1 C TIP
493 TIP343 20389 RESIDUE 1 C TIP
494 TIP344 20392 RESIDUE 1 C TIP
495 TIP345 20395 RESIDUE 1 C TIP
496 TIP346 20398 RESIDUE 1 C TIP
497 TIP347 20401 RESIDUE 1 C TIP
498 TIP348 20404 RESIDUE 1 C TIP
499 TIP349 20407 RESIDUE 1 C TIP
500 TIP350 20410 RESIDUE 1 C TIP
501 TIP351 20413 RESIDUE 1 C TIP
502 TIP352 20416 RESIDUE 1 C TIP
503 TIP353 20419 RESIDUE 1 C TIP
504 TIP354 20422 RESIDUE 1 C TIP
505 TIP355 20425 RESIDUE 1 C TIP
506 TIP356 20428 RESIDUE 1 C TIP
507 TIP357 20431 RESIDUE 1 C TIP
508 TIP358 20434 RESIDUE 1 C TIP
509 TIP359 20437 RESIDUE 1 C TIP
510 TIP360 20440 RESIDUE 1 C TIP
511 TIP361 20443 RESIDUE 1 C TIP
512 TIP362 20446 RESIDUE 1 C TIP
513 TIP363 20449 RESIDUE 1 C TIP
514 TIP364 20452 RESIDUE 1 C TIP
515 TIP365 20455 RESIDUE 1 C TIP
516 TIP366 20458 RESIDUE 1 C TIP
517 TIP367 20461 RESIDUE 1 C TIP
518 TIP368 20464 RESIDUE 1 C TIP
519 TIP369 20467 RESIDUE 1 C TIP
520 TIP370 20470 RESIDUE 1 C TIP
521 TIP371 20473 RESIDUE 1 C TIP
522 TIP372 20476 RESIDUE 1 C TIP
523 TIP373 20479 RESIDUE 1 C TIP
524 TIP374 20482 RESIDUE 1 C TIP
525 TIP375 20485 RESIDUE 1 C TIP
526 TIP376 20488 RESIDUE 1 C TIP
527 TIP377 20491 RESIDUE 1 C TIP
528 TIP378 20494 RESIDUE 1 C TIP
529 TIP379 20497 RESIDUE 1 C TIP
530 TIP380 20500 RESIDUE 1 C TIP
531 TIP381 20503 RESIDUE 1 C TIP
532 TIP382 20506 RESIDUE 1 C TIP
533 TIP383 20509 RESIDUE 1 C TIP
534 TIP384 20512 RESIDUE 1 C TIP
535 TIP385 20515 RESIDUE 1 C TIP
536 TIP386 20518 RESIDUE 1 C TIP
537 TIP387 20521 RESIDUE 1 C TIP
538 TIP388 20524 RESIDUE 1 C TIP
539 TIP389 20527 RESIDUE 1 C TIP
540 TIP390 20530 RESIDUE 1 C TIP
541 TIP391 20533 RESIDUE 1 C TIP
542 TIP392 20536 RESIDUE 1 C TIP
543 TIP393 20539 RESIDUE 1 C TIP
544 TIP394 20542 RESIDUE 1 C TIP
545 TIP395 20545 RESIDUE 1 C TIP
546 TIP396 20548 RESIDUE 1 C TIP
547 TIP397 20551 RESIDUE 1 C TIP
548 TIP398 20554 RESIDUE 1 C TIP
549 TIP399 20557 RESIDUE 1 C TIP
550 TIP400 20560 RESIDUE 1 C TIP
551 TIP401 20563 RESIDUE 1 C TIP
552 TIP402 20566 RESIDUE 1 C TIP
553 TIP403 20569 RESIDUE 1 C TIP
554 TIP404 20572 RESIDUE 1 C TIP
555 TIP405 20575 RESIDUE 1 C TIP
556 TIP406 20578 RESIDUE 1 C TIP
557 TIP407 20581 RESIDUE 1 C TIP
558 TIP408 20584 RESIDUE 1 C TIP
559 TIP409 20587 RESIDUE 1 C TIP
560 TIP410 20590 RESIDUE 1 C TIP
561 TIP411 20593 RESIDUE 1 C TIP
562 TIP412 20596 RESIDUE 1 C TIP
563 TIP413 20599 RESIDUE 1 C TIP
564 TIP414 20602 RESIDUE 1 C TIP
565 TIP415 20605 RESIDUE 1 C TIP
566 TIP416 20608 RESIDUE 1 C TIP
567 TIP417 20611 RESIDUE 1 C TIP
568 TIP418 20614 RESIDUE 1 C TIP
569 TIP419 20617 RESIDUE 1 C TIP
570 TIP420 20620 RESIDUE 1 C TIP
571 TIP421 20623 RESIDUE 1 C TIP
572 TIP422 20626 RESIDUE 1 C TIP
573 TIP423 20629 RESIDUE 1 C TIP
574 TIP424 20632 RESIDUE 1 C TIP
575 TIP425 20635 RESIDUE 1 C TIP
576 TIP426 20638 RESIDUE 1 C TIP
577 TIP427 20641 RESIDUE 1 C TIP
578 TIP428 20644 RESIDUE 1 C TIP
579 TIP429 20647 RESIDUE 1 C TIP
580 TIP430 20650 RESIDUE 1 C TIP
581 TIP431 20653 RESIDUE 1 C TIP
582 TIP432 20656 RESIDUE 1 C TIP
583 TIP433 20659 RESIDUE 1 C TIP
584 TIP434 20662 RESIDUE 1 C TIP
585 TIP435 20665 RESIDUE 1 C TIP
586 TIP436 20668 RESIDUE 1 C TIP
587 TIP437 20671 RESIDUE 1 C TIP
588 TIP438 20674 RESIDUE 1 C TIP
589 TIP439 20677 RESIDUE 1 C TIP
590 TIP440 20680 RESIDUE 1 C TIP
591 TIP441 20683 RESIDUE 1 C TIP
592 TIP442 20686 RESIDUE 1 C TIP
593 TIP443 20689 RESIDUE 1 C TIP
594 TIP444 20692 RESIDUE 1 C TIP
595 TIP445 20695 RESIDUE 1 C TIP
596 TIP446 20698 RESIDUE 1 C TIP
597 TIP447 20701 RESIDUE 1 C TIP
598 TIP448 20704 RESIDUE 1 C TIP
599 TIP449 20707 RESIDUE 1 C TIP
600 TIP450 20710 RESIDUE 1 C TIP
601 TIP451 20713 RESIDUE 1 C TIP
602 TIP452 20716 RESIDUE 1 C TIP
603 TIP453 20719 RESIDUE 1 C TIP
604 TIP454 20722 RESIDUE 1 C TIP
605 TIP455 20725 RESIDUE 1 C TIP
606 TIP456 20728 RESIDUE 1 C TIP
607 TIP457 20731 RESIDUE 1 C TIP
608 TIP458 20734 RESIDUE 1 C TIP
609 TIP459 20737 RESIDUE 1 C TIP
610 TIP460 20740 RESIDUE 1 C TIP
611 TIP461 20743 RESIDUE 1 C TIP
612 TIP462 20746 RESIDUE 1 C TIP
613 TIP463 20749 RESIDUE 1 C TIP
614 TIP464 20752 RESIDUE 1 C TIP
615 TIP465 20755 RESIDUE 1 C TIP
616 TIP466 20758 RESIDUE 1 C TIP
617 TIP467 20761 RESIDUE 1 C TIP
618 TIP468 20764 RESIDUE 1 C TIP
619 TIP469 20767 RESIDUE 1 C TIP
620 TIP470 20770 RESIDUE 1 C TIP
621 TIP471 20773 RESIDUE 1 C TIP
622 TIP472 20776 RESIDUE 1 C TIP
623 TIP473 20779 RESIDUE 1 C TIP
624 TIP474 20782 RESIDUE 1 C TIP
625 TIP475 20785 RESIDUE 1 C TIP
626 TIP476 20788 RESIDUE 1 C TIP
627 TIP477 20791 RESIDUE 1 C TIP
628 TIP478 20794 RESIDUE 1 C TIP
629 TIP479 20797 RESIDUE 1 C TIP
630 TIP480 20800 RESIDUE 1 C TIP
631 TIP481 20803 RESIDUE 1 C TIP
632 TIP482 20806 RESIDUE 1 C TIP
633 TIP483 20809 RESIDUE 1 C TIP
634 TIP484 20812 RESIDUE 1 C TIP
635 TIP485 20815 RESIDUE 1 C TIP
636 TIP486 20818 RESIDUE 1 C TIP
637 TIP487 20821 RESIDUE 1 C TIP
638 TIP488 20824 RESIDUE 1 C TIP
639 TIP489 20827 RESIDUE 1 C TIP
640 TIP490 20830 RESIDUE 1 C TIP
641 TIP491 20833 RESIDUE 1 C TIP
642 TIP492 20836 RESIDUE 1 C TIP
643 TIP493 20839 RESIDUE 1 C TIP
644 TIP494 20842 RESIDUE 1 C TIP
645 TIP495 20845 RESIDUE 1 C TIP
646 TIP496 20848 RESIDUE 1 C TIP
647 TIP497 20851 RESIDUE 1 C TIP
648 TIP498 20854 RESIDUE 1 C TIP
649 TIP499 20857 RESIDUE 1 C TIP
650 TIP500 20860 RESIDUE 1 C TIP
651 TIP501 20863 RESIDUE 1 C TIP
652 TIP502 20866 RESIDUE 1 C TIP
653 TIP503 20869 RESIDUE 1 C TIP
654 TIP504 20872 RESIDUE 1 C TIP
655 TIP505 20875 RESIDUE 1 C TIP
656 TIP506 20878 RESIDUE 1 C TIP
657 TIP507 20881 RESIDUE 1 C TIP
658 TIP508 20884 RESIDUE 1 C TIP
659 TIP509 20887 RESIDUE 1 C TIP
660 TIP510 20890 RESIDUE 1 C TIP
661 TIP511 20893 RESIDUE 1 C TIP
662 TIP512 20896 RESIDUE 1 C TIP
663 TIP513 20899 RESIDUE 1 C TIP
664 TIP514 20902 RESIDUE 1 C TIP
665 TIP515 20905 RESIDUE 1 C TIP
666 TIP516 20908 RESIDUE 1 C TIP
667 TIP517 20911 RESIDUE 1 C TIP
668 TIP518 20914 RESIDUE 1 C TIP
669 TIP519 20917 RESIDUE 1 C TIP
670 TIP520 20920 RESIDUE 1 C TIP
671 TIP521 20923 RESIDUE 1 C TIP
672 TIP522 20926 RESIDUE 1 C TIP
673 TIP523 20929 RESIDUE 1 C TIP
674 TIP524 20932 RESIDUE 1 C TIP
675 TIP525 20935 RESIDUE 1 C TIP
676 TIP526 20938 RESIDUE 1 C TIP
677 TIP527 20941 RESIDUE 1 C TIP
678 TIP528 20944 RESIDUE 1 C TIP
679 TIP529 20947 RESIDUE 1 C TIP
680 TIP530 20950 RESIDUE 1 C TIP
681 TIP531 20953 RESIDUE 1 C TIP
682 TIP532 20956 RESIDUE 1 C TIP
683 TIP533 20959 RESIDUE 1 C TIP
684 TIP534 20962 RESIDUE 1 C TIP
685 TIP535 20965 RESIDUE 1 C TIP
686 TIP536 20968 RESIDUE 1 C TIP
687 TIP537 20971 RESIDUE 1 C TIP
688 TIP538 20974 RESIDUE 1 C TIP
689 TIP539 20977 RESIDUE 1 C TIP
690 TIP540 20980 RESIDUE 1 C TIP
691 TIP541 20983 RESIDUE 1 C TIP
692 TIP542 20986 RESIDUE 1 C TIP
693 TIP543 20989 RESIDUE 1 C TIP
694 TIP544 20992 RESIDUE 1 C TIP
695 TIP545 20995 RESIDUE 1 C TIP
696 TIP546 20998 RESIDUE 1 C TIP
697 TIP547 21001 RESIDUE 1 C TIP
698 TIP548 21004 RESIDUE 1 C TIP
699 TIP549 21007 RESIDUE 1 C TIP
700 TIP550 21010 RESIDUE 1 C TIP
701 TIP551 21013 RESIDUE 1 C TIP
702 TIP552 21016 RESIDUE 1 C TIP
703 TIP553 21019 RESIDUE 1 C TIP
704 TIP554 21022 RESIDUE 1 C TIP
705 TIP555 21025 RESIDUE 1 C TIP
706 TIP556 21028 RESIDUE 1 C TIP
707 TIP557 21031 RESIDUE 1 C TIP
708 TIP558 21034 RESIDUE 1 C TIP
709 TIP559 21037 RESIDUE 1 C TIP
710 TIP560 21040 RESIDUE 1 C TIP
711 TIP561 21043 RESIDUE 1 C TIP
712 TIP562 21046 RESIDUE 1 C TIP
713 TIP563 21049 RESIDUE 1 C TIP
714 TIP564 21052 RESIDUE 1 C TIP
715 TIP565 21055 RESIDUE 1 C TIP
716 TIP566 21058 RESIDUE 1 C TIP
717 TIP567 21061 RESIDUE 1 C TIP
718 TIP568 21064 RESIDUE 1 C TIP
719 TIP569 21067 RESIDUE 1 C TIP
720 TIP570 21070 RESIDUE 1 C TIP
721 TIP571 21073 RESIDUE 1 C TIP
722 TIP572 21076 RESIDUE 1 C TIP
723 TIP573 21079 RESIDUE 1 C TIP
724 TIP574 21082 RESIDUE 1 C TIP
725 TIP575 21085 RESIDUE 1 C TIP
726 TIP576 21088 RESIDUE 1 C TIP
727 TIP577 21091 RESIDUE 1 C TIP
728 TIP578 21094 RESIDUE 1 C TIP
729 TIP579 21097 RESIDUE 1 C TIP
730 TIP580 21100 RESIDUE 1 C TIP
731 TIP581 21103 RESIDUE 1 C TIP
732 TIP582 21106 RESIDUE 1 C TIP
733 TIP583 21109 RESIDUE 1 C TIP
734 TIP584 21112 RESIDUE 1 C TIP
735 TIP585 21115 RESIDUE 1 C TIP
736 TIP586 21118 RESIDUE 1 C TIP
737 TIP587 21121 RESIDUE 1 C TIP
738 TIP588 21124 RESIDUE 1 C TIP
739 TIP589 21127 RESIDUE 1 C TIP
740 TIP590 21130 RESIDUE 1 C TIP
741 TIP591 21133 RESIDUE 1 C TIP
742 TIP592 21136 RESIDUE 1 C TIP
743 TIP593 21139 RESIDUE 1 C TIP
744 TIP594 21142 RESIDUE 1 C TIP
745 TIP595 21145 RESIDUE 1 C TIP
746 TIP596 21148 RESIDUE 1 C TIP
747 TIP597 21151 RESIDUE 1 C TIP
748 TIP598 21154 RESIDUE 1 C TIP
749 TIP599 21157 RESIDUE 1 C TIP
750 TIP600 21160 RESIDUE 1 C TIP
751 TIP601 21163 RESIDUE 1 C TIP
752 TIP602 21166 RESIDUE 1 C TIP
753 TIP603 21169 RESIDUE 1 C TIP
754 TIP604 21172 RESIDUE 1 C TIP
755 TIP605 21175 RESIDUE 1 C TIP
756 TIP606 21178 RESIDUE 1 C TIP
757 TIP607 21181 RESIDUE 1 C TIP
758 TIP608 21184 RESIDUE 1 C TIP
759 TIP609 21187 RESIDUE 1 C TIP
760 TIP610 21190 RESIDUE 1 C TIP
761 TIP611 21193 RESIDUE 1 C TIP
762 TIP612 21196 RESIDUE 1 C TIP
763 TIP613 21199 RESIDUE 1 C TIP
764 TIP614 21202 RESIDUE 1 C TIP
765 TIP615 21205 RESIDUE 1 C TIP
766 TIP616 21208 RESIDUE 1 C TIP
767 TIP617 21211 RESIDUE 1 C TIP
768 TIP618 21214 RESIDUE 1 C TIP
769 TIP619 21217 RESIDUE 1 C TIP
770 TIP620 21220 RESIDUE 1 C TIP
771 TIP621 21223 RESIDUE 1 C TIP
772 TIP622 21226 RESIDUE 1 C TIP
773 TIP623 21229 RESIDUE 1 C TIP
774 TIP624 21232 RESIDUE 1 C TIP
775 TIP625 21235 RESIDUE 1 C TIP
776 TIP626 21238 RESIDUE 1 C TIP
777 TIP627 21241 RESIDUE 1 C TIP
778 TIP628 21244 RESIDUE 1 C TIP
779 TIP629 21247 RESIDUE 1 C TIP
780 TIP630 21250 RESIDUE 1 C TIP
781 TIP631 21253 RESIDUE 1 C TIP
782 TIP632 21256 RESIDUE 1 C TIP
783 TIP633 21259 RESIDUE 1 C TIP
784 TIP634 21262 RESIDUE 1 C TIP
785 TIP635 21265 RESIDUE 1 C TIP
786 TIP636 21268 RESIDUE 1 C TIP
787 TIP637 21271 RESIDUE 1 C TIP
788 TIP638 21274 RESIDUE 1 C TIP
789 TIP639 21277 RESIDUE 1 C TIP
790 TIP640 21280 RESIDUE 1 C TIP
791 TIP641 21283 RESIDUE 1 C TIP
792 TIP642 21286 RESIDUE 1 C TIP
793 TIP643 21289 RESIDUE 1 C TIP
794 TIP644 21292 RESIDUE 1 C TIP
795 TIP645 21295 RESIDUE 1 C TIP
796 TIP646 21298 RESIDUE 1 C TIP
797 TIP647 21301 RESIDUE 1 C TIP
798 TIP648 21304 RESIDUE 1 C TIP
799 TIP649 21307 RESIDUE 1 C TIP
800 TIP650 21310 RESIDUE 1 C TIP
801 TIP651 21313 RESIDUE 1 C TIP
802 TIP652 21316 RESIDUE 1 C TIP
803 TIP653 21319 RESIDUE 1 C TIP
804 TIP654 21322 RESIDUE 1 C TIP
805 TIP655 21325 RESIDUE 1 C TIP
806 TIP656 21328 RESIDUE 1 C TIP
807 TIP657 21331 RESIDUE 1 C TIP
808 TIP658 21334 RESIDUE 1 C TIP
809 TIP659 21337 RESIDUE 1 C TIP
810 TIP660 21340 RESIDUE 1 C TIP
811 TIP661 21343 RESIDUE 1 C TIP
812 TIP662 21346 RESIDUE 1 C TIP
813 TIP663 21349 RESIDUE 1 C TIP
814 TIP664 21352 RESIDUE 1 C TIP
815 TIP665 21355 RESIDUE 1 C TIP
816 TIP666 21358 RESIDUE 1 C TIP
817 TIP667 21361 RESIDUE 1 C TIP
818 TIP668 21364 RESIDUE 1 C TIP
819 TIP669 21367 RESIDUE 1 C TIP
820 TIP670 21370 RESIDUE 1 C TIP
821 TIP671 21373 RESIDUE 1 C TIP
822 TIP672 21376 RESIDUE 1 C TIP
823 TIP673 21379 RESIDUE 1 C TIP
824 TIP674 21382 RESIDUE 1 C TIP
825 TIP675 21385 RESIDUE 1 C TIP
826 TIP676 21388 RESIDUE 1 C TIP
827 TIP677 21391 RESIDUE 1 C TIP
828 TIP678 21394 RESIDUE 1 C TIP
829 TIP679 21397 RESIDUE 1 C TIP
830 TIP680 21400 RESIDUE 1 C TIP
831 TIP681 21403 RESIDUE 1 C TIP
832 TIP682 21406 RESIDUE 1 C TIP
833 TIP683 21409 RESIDUE 1 C TIP
834 TIP684 21412 RESIDUE 1 C TIP
835 TIP685 21415 RESIDUE 1 C TIP
836 TIP686 21418 RESIDUE 1 C TIP
837 TIP687 21421 RESIDUE 1 C TIP
838 TIP688 21424 RESIDUE 1 C TIP
839 TIP689 21427 RESIDUE 1 C TIP
840 TIP690 21430 RESIDUE 1 C TIP
841 TIP691 21433 RESIDUE 1 C TIP
842 TIP692 21436 RESIDUE 1 C TIP
843 TIP693 21439 RESIDUE 1 C TIP
844 TIP694 21442 RESIDUE 1 C TIP
845 TIP695 21445 RESIDUE 1 C TIP
846 TIP696 21448 RESIDUE 1 C TIP
847 TIP697 21451 RESIDUE 1 C TIP
848 TIP698 21454 RESIDUE 1 C TIP
849 TIP699 21457 RESIDUE 1 C TIP
850 TIP700 21460 RESIDUE 1 C TIP
851 TIP701 21463 RESIDUE 1 C TIP
852 TIP702 21466 RESIDUE 1 C TIP
853 TIP703 21469 RESIDUE 1 C TIP
854 TIP704 21472 RESIDUE 1 C TIP
855 TIP705 21475 RESIDUE 1 C TIP
856 TIP706 21478 RESIDUE 1 C TIP
857 TIP707 21481 RESIDUE 1 C TIP
858 TIP708 21484 RESIDUE 1 C TIP
859 TIP709 21487 RESIDUE 1 C TIP
860 TIP710 21490 RESIDUE 1 C TIP
861 TIP711 21493 RESIDUE 1 C TIP
862 TIP712 21496 RESIDUE 1 C TIP
863 TIP713 21499 RESIDUE 1 C TIP
864 TIP714 21502 RESIDUE 1 C TIP
865 TIP715 21505 RESIDUE 1 C TIP
866 TIP716 21508 RESIDUE 1 C TIP
867 TIP717 21511 RESIDUE 1 C TIP
868 TIP718 21514 RESIDUE 1 C TIP
869 TIP719 21517 RESIDUE 1 C TIP
870 TIP720 21520 RESIDUE 1 C TIP
871 TIP721 21523 RESIDUE 1 C TIP
872 TIP722 21526 RESIDUE 1 C TIP
873 TIP723 21529 RESIDUE 1 C TIP
874 TIP724 21532 RESIDUE 1 C TIP
875 TIP725 21535 RESIDUE 1 C TIP
876 TIP726 21538 RESIDUE 1 C TIP
877 TIP727 21541 RESIDUE 1 C TIP
878 TIP728 21544 RESIDUE 1 C TIP
879 TIP729 21547 RESIDUE 1 C TIP
880 TIP730 21550 RESIDUE 1 C TIP
881 TIP731 21553 RESIDUE 1 C TIP
882 TIP732 21556 RESIDUE 1 C TIP
883 TIP733 21559 RESIDUE 1 C TIP
884 TIP734 21562 RESIDUE 1 C TIP
885 TIP735 21565 RESIDUE 1 C TIP
886 TIP736 21568 RESIDUE 1 C TIP
887 TIP737 21571 RESIDUE 1 C TIP
888 TIP738 21574 RESIDUE 1 C TIP
889 TIP739 21577 RESIDUE 1 C TIP
890 TIP740 21580 RESIDUE 1 C TIP
891 TIP741 21583 RESIDUE 1 C TIP
892 TIP742 21586 RESIDUE 1 C TIP
893 TIP743 21589 RESIDUE 1 C TIP
894 TIP744 21592 RESIDUE 1 C TIP
895 TIP745 21595 RESIDUE 1 C TIP
896 TIP746 21598 RESIDUE 1 C TIP
897 TIP747 21601 RESIDUE 1 C TIP
898 TIP748 21604 RESIDUE 1 C TIP
899 TIP749 21607 RESIDUE 1 C TIP
900 TIP750 21610 RESIDUE 1 C TIP
901 TIP751 21613 RESIDUE 1 C TIP
902 TIP752 21616 RESIDUE 1 C TIP
903 TIP753 21619 RESIDUE 1 C TIP
904 TIP754 21622 RESIDUE 1 C TIP
905 TIP755 21625 RESIDUE 1 C TIP
906 TIP756 21628 RESIDUE 1 C TIP
907 TIP757 21631 RESIDUE 1 C TIP
908 TIP758 21634 RESIDUE 1 C TIP
909 TIP759 21637 RESIDUE 1 C TIP
910 TIP760 21640 RESIDUE 1 C TIP
911 TIP761 21643 RESIDUE 1 C TIP
912 TIP762 21646 RESIDUE 1 C TIP
913 TIP763 21649 RESIDUE 1 C TIP
914 TIP764 21652 RESIDUE 1 C TIP
915 TIP765 21655 RESIDUE 1 C TIP
916 TIP766 21658 RESIDUE 1 C TIP
917 TIP767 21661 RESIDUE 1 C TIP
918 TIP768 21664 RESIDUE 1 C TIP
919 TIP769 21667 RESIDUE 1 C TIP
920 TIP770 21670 RESIDUE 1 C TIP
921 TIP771 21673 RESIDUE 1 C TIP
922 TIP772 21676 RESIDUE 1 C TIP
923 TIP773 21679 RESIDUE 1 C TIP
924 TIP774 21682 RESIDUE 1 C TIP
925 TIP775 21685 RESIDUE 1 C TIP
926 TIP776 21688 RESIDUE 1 C TIP
927 TIP777 21691 RESIDUE 1 C TIP
928 TIP778 21694 RESIDUE 1 C TIP
929 TIP779 21697 RESIDUE 1 C TIP
930 TIP780 21700 RESIDUE 1 C TIP
931 TIP781 21703 RESIDUE 1 C TIP
932 TIP782 21706 RESIDUE 1 C TIP
933 TIP783 21709 RESIDUE 1 C TIP
934 TIP784 21712 RESIDUE 1 C TIP
935 TIP785 21715 RESIDUE 1 C TIP
936 TIP786 21718 RESIDUE 1 C TIP
937 TIP787 21721 RESIDUE 1 C TIP
938 TIP788 21724 RESIDUE 1 C TIP
939 TIP789 21727 RESIDUE 1 C TIP
940 TIP790 21730 RESIDUE 1 C TIP
941 TIP791 21733 RESIDUE 1 C TIP
942 TIP792 21736 RESIDUE 1 C TIP
943 TIP793 21739 RESIDUE 1 C TIP
944 TIP794 21742 RESIDUE 1 C TIP
945 TIP795 21745 RESIDUE 1 C TIP
946 TIP796 21748 RESIDUE 1 C TIP
947 TIP797 21751 RESIDUE 1 C TIP
948 TIP798 21754 RESIDUE 1 C TIP
949 TIP799 21757 RESIDUE 1 C TIP
950 TIP800 21760 RESIDUE 1 C TIP
951 TIP801 21763 RESIDUE 1 C TIP
952 TIP802 21766 RESIDUE 1 C TIP
953 TIP803 21769 RESIDUE 1 C TIP
954 TIP804 21772 RESIDUE 1 C TIP
955 TIP805 21775 RESIDUE 1 C TIP
956 TIP806 21778 RESIDUE 1 C TIP
957 TIP807 21781 RESIDUE 1 C TIP
958 TIP808 21784 RESIDUE 1 C TIP
959 TIP809 21787 RESIDUE 1 C TIP
960 TIP810 21790 RESIDUE 1 C TIP
961 TIP811 21793 RESIDUE 1 C TIP
962 TIP812 21796 RESIDUE 1 C TIP
963 TIP813 21799 RESIDUE 1 C TIP
964 TIP814 21802 RESIDUE 1 C TIP
965 TIP815 21805 RESIDUE 1 C TIP
966 TIP816 21808 RESIDUE 1 C TIP
967 TIP817 21811 RESIDUE 1 C TIP
968 TIP818 21814 RESIDUE 1 C TIP
969 TIP819 21817 RESIDUE 1 C TIP
970 TIP820 21820 RESIDUE 1 C TIP
971 TIP821 21823 RESIDUE 1 C TIP
972 TIP822 21826 RESIDUE 1 C TIP
973 TIP823 21829 RESIDUE 1 C TIP
974 TIP824 21832 RESIDUE 1 C TIP
975 TIP825 21835 RESIDUE 1 C TIP
976 TIP826 21838 RESIDUE 1 C TIP
977 TIP827 21841 RESIDUE 1 C TIP
978 TIP828 21844 RESIDUE 1 C TIP
979 TIP829 21847 RESIDUE 1 C TIP
980 TIP830 21850 RESIDUE 1 C TIP
981 TIP831 21853 RESIDUE 1 C TIP
982 TIP832 21856 RESIDUE 1 C TIP
983 TIP833 21859 RESIDUE 1 C TIP
984 TIP834 21862 RESIDUE 1 C TIP
985 TIP835 21865 RESIDUE 1 C TIP
986 TIP836 21868 RESIDUE 1 C TIP
987 TIP837 21871 RESIDUE 1 C TIP
988 TIP838 21874 RESIDUE 1 C TIP
989 TIP839 21877 RESIDUE 1 C TIP
990 TIP840 21880 RESIDUE 1 C TIP
991 TIP841 21883 RESIDUE 1 C TIP
992 TIP842 21886 RESIDUE 1 C TIP
993 TIP843 21889 RESIDUE 1 C TIP
994 TIP844 21892 RESIDUE 1 C TIP
995 TIP845 21895 RESIDUE 1 C TIP
996 TIP846 21898 RESIDUE 1 C TIP
997 TIP847 21901 RESIDUE 1 C TIP
998 TIP848 21904 RESIDUE 1 C TIP
999 TIP849 21907 RESIDUE 1 C TIP
1000 TIP850 21910 RESIDUE 1 C TIP
1001 TIP851 21913 RESIDUE 1 C TIP
1002 TIP852 21916 RESIDUE 1 C TIP
1003 TIP853 21919 RESIDUE 1 C TIP
1004 TIP854 21922 RESIDUE 1 C TIP
1005 TIP855 21925 RESIDUE 1 C TIP
1006 TIP856 21928 RESIDUE 1 C TIP
1007 TIP857 21931 RESIDUE 1 C TIP
1008 TIP858 21934 RESIDUE 1 C TIP
1009 TIP859 21937 RESIDUE 1 C TIP
1010 TIP860 21940 RESIDUE 1 C TIP
1011 TIP861 21943 RESIDUE 1 C TIP
1012 TIP862 21946 RESIDUE 1 C TIP
1013 TIP863 21949 RESIDUE 1 C TIP
1014 TIP864 21952 RESIDUE 1 C TIP
1015 TIP865 21955 RESIDUE 1 C TIP
1016 TIP866 21958 RESIDUE 1 C TIP
1017 TIP867 21961 RESIDUE 1 C TIP
1018 TIP868 21964 RESIDUE 1 C TIP
1019 TIP869 21967 RESIDUE 1 C TIP
1020 TIP870 21970 RESIDUE 1 C TIP
1021 TIP871 21973 RESIDUE 1 C TIP
1022 TIP872 21976 RESIDUE 1 C TIP
1023 TIP873 21979 RESIDUE 1 C TIP
1024 TIP874 21982 RESIDUE 1 C TIP
1025 TIP875 21985 RESIDUE 1 C TIP
1026 TIP876 21988 RESIDUE 1 C TIP
1027 TIP877 21991 RESIDUE 1 C TIP
1028 TIP878 21994 RESIDUE 1 C TIP
1029 TIP879 21997 RESIDUE 1 C TIP
1030 TIP880 22000 RESIDUE 1 C TIP
1031 TIP881 22003 RESIDUE 1 C TIP
1032 TIP882 22006 RESIDUE 1 C TIP
1033 TIP883 22009 RESIDUE 1 C TIP
1034 TIP884 22012 RESIDUE 1 C TIP
1035 TIP885 22015 RESIDUE 1 C TIP
1036 TIP886 22018 RESIDUE 1 C TIP
1037 TIP887 22021 RESIDUE 1 C TIP
1038 TIP888 22024 RESIDUE 1 C TIP
1039 TIP889 22027 RESIDUE 1 C TIP
1040 TIP890 22030 RESIDUE 1 C TIP
1041 TIP891 22033 RESIDUE 1 C TIP
1042 TIP892 22036 RESIDUE 1 C TIP
1043 TIP893 22039 RESIDUE 1 C TIP
1044 TIP894 22042 RESIDUE 1 C TIP
1045 TIP895 22045 RESIDUE 1 C TIP
1046 TIP896 22048 RESIDUE 1 C TIP
1047 TIP897 22051 RESIDUE 1 C TIP
1048 TIP898 22054 RESIDUE 1 C TIP
1049 TIP899 22057 RESIDUE 1 C TIP
1050 TIP900 22060 RESIDUE 1 C TIP
1051 TIP901 22063 RESIDUE 1 C TIP
1052 TIP902 22066 RESIDUE 1 C TIP
1053 TIP903 22069 RESIDUE 1 C TIP
1054 TIP904 22072 RESIDUE 1 C TIP
1055 TIP905 22075 RESIDUE 1 C TIP
1056 TIP906 22078 RESIDUE 1 C TIP
1057 TIP907 22081 RESIDUE 1 C TIP
1058 TIP908 22084 RESIDUE 1 C TIP
1059 TIP909 22087 RESIDUE 1 C TIP
1060 TIP910 22090 RESIDUE 1 C TIP
1061 TIP911 22093 RESIDUE 1 C TIP
1062 TIP912 22096 RESIDUE 1 C TIP
1063 TIP913 22099 RESIDUE 1 C TIP
1064 TIP914 22102 RESIDUE 1 C TIP
1065 TIP915 22105 RESIDUE 1 C TIP
1066 TIP916 22108 RESIDUE 1 C TIP
1067 TIP917 22111 RESIDUE 1 C TIP
1068 TIP918 22114 RESIDUE 1 C TIP
1069 TIP919 22117 RESIDUE 1 C TIP
1070 TIP920 22120 RESIDUE 1 C TIP
1071 TIP921 22123 RESIDUE 1 C TIP
1072 TIP922 22126 RESIDUE 1 C TIP
1073 TIP923 22129 RESIDUE 1 C TIP
1074 TIP924 22132 RESIDUE 1 C TIP
1075 TIP925 22135 RESIDUE 1 C TIP
1076 TIP926 22138 RESIDUE 1 C TIP
1077 TIP927 22141 RESIDUE 1 C TIP
1078 TIP928 22144 RESIDUE 1 C TIP
1079 TIP929 22147 RESIDUE 1 C TIP
1080 TIP930 22150 RESIDUE 1 C TIP
1081 TIP931 22153 RESIDUE 1 C TIP
1082 TIP932 22156 RESIDUE 1 C TIP
1083 TIP933 22159 RESIDUE 1 C TIP
1084 TIP934 22162 RESIDUE 1 C TIP
1085 TIP935 22165 RESIDUE 1 C TIP
1086 TIP936 22168 RESIDUE 1 C TIP
1087 TIP937 22171 RESIDUE 1 C TIP
1088 TIP938 22174 RESIDUE 1 C TIP
1089 TIP939 22177 RESIDUE 1 C TIP
1090 TIP940 22180 RESIDUE 1 C TIP
1091 TIP941 22183 RESIDUE 1 C TIP
1092 TIP942 22186 RESIDUE 1 C TIP
1093 TIP943 22189 RESIDUE 1 C TIP
1094 TIP944 22192 RESIDUE 1 C TIP
1095 TIP945 22195 RESIDUE 1 C TIP
1096 TIP946 22198 RESIDUE 1 C TIP
1097 TIP947 22201 RESIDUE 1 C TIP
1098 TIP948 22204 RESIDUE 1 C TIP
1099 TIP949 22207 RESIDUE 1 C TIP
1100 TIP950 22210 RESIDUE 1 C TIP
1101 TIP951 22213 RESIDUE 1 C TIP
1102 TIP952 22216 RESIDUE 1 C TIP
1103 TIP953 22219 RESIDUE 1 C TIP
1104 TIP954 22222 RESIDUE 1 C TIP
1105 TIP955 22225 RESIDUE 1 C TIP
1106 TIP956 22228 RESIDUE 1 C TIP
1107 TIP957 22231 RESIDUE 1 C TIP
1108 TIP958 22234 RESIDUE 1 C TIP
1109 TIP959 22237 RESIDUE 1 C TIP
1110 TIP960 22240 RESIDUE 1 C TIP
1111 TIP961 22243 RESIDUE 1 C TIP
1112 TIP962 22246 RESIDUE 1 C TIP
1113 TIP963 22249 RESIDUE 1 C TIP
1114 TIP964 22252 RESIDUE 1 C TIP
1115 TIP965 22255 RESIDUE 1 C TIP
1116 TIP966 22258 RESIDUE 1 C TIP
1117 TIP967 22261 RESIDUE 1 C TIP
1118 TIP968 22264 RESIDUE 1 C TIP
1119 TIP969 22267 RESIDUE 1 C TIP
1120 TIP970 22270 RESIDUE 1 C TIP
1121 TIP971 22273 RESIDUE 1 C TIP
1122 TIP972 22276 RESIDUE 1 C TIP
1123 TIP973 22279 RESIDUE 1 C TIP
1124 TIP974 22282 RESIDUE 1 C TIP
1125 TIP975 22285 RESIDUE 1 C TIP
1126 TIP976 22288 RESIDUE 1 C TIP
1127 TIP977 22291 RESIDUE 1 C TIP
1128 TIP978 22294 RESIDUE 1 C TIP
1129 TIP979 22297 RESIDUE 1 C TIP
1130 TIP980 22300 RESIDUE 1 C TIP
1131 TIP981 22303 RESIDUE 1 C TIP
1132 TIP982 22306 RESIDUE 1 C TIP
1133 TIP983 22309 RESIDUE 1 C TIP
1134 TIP984 22312 RESIDUE 1 C TIP
1135 TIP985 22315 RESIDUE 1 C TIP
1136 TIP986 22318 RESIDUE 1 C TIP
1137 TIP987 22321 RESIDUE 1 C TIP
1138 TIP988 22324 RESIDUE 1 C TIP
1139 TIP989 22327 RESIDUE 1 C TIP
1140 TIP990 22330 RESIDUE 1 C TIP
1141 TIP991 22333 RESIDUE 1 C TIP
1142 TIP992 22336 RESIDUE 1 C TIP
1143 TIP993 22339 RESIDUE 1 C TIP
1144 TIP994 22342 RESIDUE 1 C TIP
1145 TIP995 22345 RESIDUE 1 C TIP
1146 TIP996 22348 RESIDUE 1 C TIP
1147 TIP997 22351 RESIDUE 1 C TIP
1148 TIP998 22354 RESIDUE 1 C TIP
1149 TIP999 22357 RESIDUE 1 C TIP
1150 TIP1000 22360 RESIDUE 1 C TIP
1151 TIP1001 22363 RESIDUE 1 C TIP
1152 TIP1002 22366 RESIDUE 1 C TIP
1153 TIP1003 22369 RESIDUE 1 C TIP
1154 TIP1004 22372 RESIDUE 1 C TIP
1155 TIP1005 22375 RESIDUE 1 C TIP
1156 TIP1006 22378 RESIDUE 1 C TIP
1157 TIP1007 22381 RESIDUE 1 C TIP
1158 TIP1008 22384 RESIDUE 1 C TIP
1159 TIP1009 22387 RESIDUE 1 C TIP
1160 TIP1010 22390 RESIDUE 1 C TIP
1161 TIP1011 22393 RESIDUE 1 C TIP
1162 TIP1012 22396 RESIDUE 1 C TIP
1163 TIP1013 22399 RESIDUE 1 C TIP
1164 TIP1014 22402 RESIDUE 1 C TIP
1165 TIP1015 22405 RESIDUE 1 C TIP
1166 TIP1016 22408 RESIDUE 1 C TIP
1167 TIP1017 22411 RESIDUE 1 C TIP
1168 TIP1018 22414 RESIDUE 1 C TIP
1169 TIP1019 22417 RESIDUE 1 C TIP
1170 TIP1020 22420 RESIDUE 1 C TIP
1171 TIP1021 22423 RESIDUE 1 C TIP
1172 TIP1022 22426 RESIDUE 1 C TIP
1173 TIP1023 22429 RESIDUE 1 C TIP
1174 TIP1024 22432 RESIDUE 1 C TIP
1175 TIP1025 22435 RESIDUE 1 C TIP
1176 TIP1026 22438 RESIDUE 1 C TIP
1177 TIP1027 22441 RESIDUE 1 C TIP
1178 TIP1028 22444 RESIDUE 1 C TIP
1179 TIP1029 22447 RESIDUE 1 C TIP
1180 TIP1030 22450 RESIDUE 1 C TIP
1181 TIP1031 22453 RESIDUE 1 C TIP
1182 TIP1032 22456 RESIDUE 1 C TIP
1183 TIP1033 22459 RESIDUE 1 C TIP
1184 TIP1034 22462 RESIDUE 1 C TIP
1185 TIP1035 22465 RESIDUE 1 C TIP
1186 TIP1036 22468 RESIDUE 1 C TIP
1187 TIP1037 22471 RESIDUE 1 C TIP
1188 TIP1038 22474 RESIDUE 1 C TIP
1189 TIP1039 22477 RESIDUE 1 C TIP
1190 TIP1040 22480 RESIDUE 1 C TIP
1191 TIP1041 22483 RESIDUE 1 C TIP
1192 TIP1042 22486 RESIDUE 1 C TIP
1193 TIP1043 22489 RESIDUE 1 C TIP
1194 TIP1044 22492 RESIDUE 1 C TIP
1195 TIP1045 22495 RESIDUE 1 C TIP
1196 TIP1046 22498 RESIDUE 1 C TIP
1197 TIP1047 22501 RESIDUE 1 C TIP
1198 TIP1048 22504 RESIDUE 1 C TIP
1199 TIP1049 22507 RESIDUE 1 C TIP
1200 TIP1050 22510 RESIDUE 1 C TIP
1201 TIP1051 22513 RESIDUE 1 C TIP
1202 TIP1052 22516 RESIDUE 1 C TIP
1203 TIP1053 22519 RESIDUE 1 C TIP
1204 TIP1054 22522 RESIDUE 1 C TIP
1205 TIP1055 22525 RESIDUE 1 C TIP
1206 TIP1056 22528 RESIDUE 1 C TIP
1207 TIP1057 22531 RESIDUE 1 C TIP
1208 TIP1058 22534 RESIDUE 1 C TIP
1209 TIP1059 22537 RESIDUE 1 C TIP
1210 TIP1060 22540 RESIDUE 1 C TIP
1211 TIP1061 22543 RESIDUE 1 C TIP
1212 TIP1062 22546 RESIDUE 1 C TIP
1213 TIP1063 22549 RESIDUE 1 C TIP
1214 TIP1064 22552 RESIDUE 1 C TIP
1215 TIP1065 22555 RESIDUE 1 C TIP
1216 TIP1066 22558 RESIDUE 1 C TIP
1217 TIP1067 22561 RESIDUE 1 C TIP
1218 TIP1068 22564 RESIDUE 1 C TIP
1219 TIP1069 22567 RESIDUE 1 C TIP
1220 TIP1070 22570 RESIDUE 1 C TIP
1221 TIP1071 22573 RESIDUE 1 C TIP
1222 TIP1072 22576 RESIDUE 1 C TIP
1223 TIP1073 22579 RESIDUE 1 C TIP
1224 TIP1074 22582 RESIDUE 1 C TIP
1225 TIP1075 22585 RESIDUE 1 C TIP
1226 TIP1076 22588 RESIDUE 1 C TIP
1227 TIP1077 22591 RESIDUE 1 C TIP
1228 TIP1078 22594 RESIDUE 1 C TIP
1229 TIP1079 22597 RESIDUE 1 C TIP
1230 TIP1080 22600 RESIDUE 1 C TIP
1231 TIP1081 22603 RESIDUE 1 C TIP
1232 TIP1082 22606 RESIDUE 1 C TIP
1233 TIP1083 22609 RESIDUE 1 C TIP
1234 TIP1084 22612 RESIDUE 1 C TIP
1235 TIP1085 22615 RESIDUE 1 C TIP
1236 TIP1086 22618 RESIDUE 1 C TIP
1237 TIP1087 22621 RESIDUE 1 C TIP
1238 TIP1088 22624 RESIDUE 1 C TIP
1239 TIP1089 22627 RESIDUE 1 C TIP
1240 TIP1090 22630 RESIDUE 1 C TIP
1241 TIP1091 22633 RESIDUE 1 C TIP
1242 TIP1092 22636 RESIDUE 1 C TIP
1243 TIP1093 22639 RESIDUE 1 C TIP
1244 TIP1094 22642 RESIDUE 1 C TIP
1245 TIP1095 22645 RESIDUE 1 C TIP
1246 TIP1096 22648 RESIDUE 1 C TIP
1247 TIP1097 22651 RESIDUE 1 C TIP
1248 TIP1098 22654 RESIDUE 1 C TIP
1249 TIP1099 22657 RESIDUE 1 C TIP
1250 TIP1100 22660 RESIDUE 1 C TIP
1251 TIP1101 22663 RESIDUE 1 C TIP
1252 TIP1102 22666 RESIDUE 1 C TIP
1253 TIP1103 22669 RESIDUE 1 C TIP
1254 TIP1104 22672 RESIDUE 1 C TIP
1255 TIP1105 22675 RESIDUE 1 C TIP
1256 TIP1106 22678 RESIDUE 1 C TIP
1257 TIP1107 22681 RESIDUE 1 C TIP
1258 TIP1108 22684 RESIDUE 1 C TIP
1259 TIP1109 22687 RESIDUE 1 C TIP
1260 TIP1110 22690 RESIDUE 1 C TIP
1261 TIP1111 22693 RESIDUE 1 C TIP
1262 TIP1112 22696 RESIDUE 1 C TIP
1263 TIP1113 22699 RESIDUE 1 C TIP
1264 TIP1114 22702 RESIDUE 1 C TIP
1265 TIP1115 22705 RESIDUE 1 C TIP
1266 TIP1116 22708 RESIDUE 1 C TIP
1267 TIP1117 22711 RESIDUE 1 C TIP
1268 TIP1118 22714 RESIDUE 1 C TIP
1269 TIP1119 22717 RESIDUE 1 C TIP
1270 TIP1120 22720 RESIDUE 1 C TIP
1271 TIP1121 22723 RESIDUE 1 C TIP
1272 TIP1122 22726 RESIDUE 1 C TIP
1273 TIP1123 22729 RESIDUE 1 C TIP
1274 TIP1124 22732 RESIDUE 1 C TIP
1275 TIP1125 22735 RESIDUE 1 C TIP
1276 TIP1126 22738 RESIDUE 1 C TIP
1277 TIP1127 22741 RESIDUE 1 C TIP
1278 TIP1128 22744 RESIDUE 1 C TIP
1279 TIP1129 22747 RESIDUE 1 C TIP
1280 TIP1130 22750 RESIDUE 1 C TIP
1281 TIP1131 22753 RESIDUE 1 C TIP
1282 TIP1132 22756 RESIDUE 1 C TIP
1283 TIP1133 22759 RESIDUE 1 C TIP
1284 TIP1134 22762 RESIDUE 1 C TIP
1285 TIP1135 22765 RESIDUE 1 C TIP
1286 TIP1136 22768 RESIDUE 1 C TIP
1287 TIP1137 22771 RESIDUE 1 C TIP
1288 TIP1138 22774 RESIDUE 1 C TIP
1289 TIP1139 22777 RESIDUE 1 C TIP
1290 TIP1140 22780 RESIDUE 1 C TIP
1291 TIP1141 22783 RESIDUE 1 C TIP
1292 TIP1142 22786 RESIDUE 1 C TIP
1293 TIP1143 22789 RESIDUE 1 C TIP
1294 TIP1144 22792 RESIDUE 1 C TIP
1295 TIP1145 22795 RESIDUE 1 C TIP
1296 TIP1146 22798 RESIDUE 1 C TIP
1297 TIP1147 22801 RESIDUE 1 C TIP
1298 TIP1148 22804 RESIDUE 1 C TIP
1299 TIP1149 22807 RESIDUE 1 C TIP
1300 TIP1150 22810 RESIDUE 1 C TIP
1301 TIP1151 22813 RESIDUE 1 C TIP
1302 TIP1152 22816 RESIDUE 1 C TIP
1303 TIP1153 22819 RESIDUE 1 C TIP
1304 TIP1154 22822 RESIDUE 1 C TIP
1305 TIP1155 22825 RESIDUE 1 C TIP
1306 TIP1156 22828 RESIDUE 1 C TIP
1307 TIP1157 22831 RESIDUE 1 C TIP
1308 TIP1158 22834 RESIDUE 1 C TIP
1309 TIP1159 22837 RESIDUE 1 C TIP
1310 TIP1160 22840 RESIDUE 1 C TIP
1311 TIP1161 22843 RESIDUE 1 C TIP
1312 TIP1162 22846 RESIDUE 1 C TIP
1313 TIP1163 22849 RESIDUE 1 C TIP
1314 TIP1164 22852 RESIDUE 1 C TIP
1315 TIP1165 22855 RESIDUE 1 C TIP
1316 TIP1166 22858 RESIDUE 1 C TIP
1317 TIP1167 22861 RESIDUE 1 C TIP
1318 TIP1168 22864 RESIDUE 1 C TIP
1319 TIP1169 22867 RESIDUE 1 C TIP
1320 TIP1170 22870 RESIDUE 1 C TIP
1321 TIP1171 22873 RESIDUE 1 C TIP
1322 TIP1172 22876 RESIDUE 1 C TIP
1323 TIP1173 22879 RESIDUE 1 C TIP
1324 TIP1174 22882 RESIDUE 1 C TIP
1325 TIP1175 22885 RESIDUE 1 C TIP
1326 TIP1176 22888 RESIDUE 1 C TIP
1327 TIP1177 22891 RESIDUE 1 C TIP
1328 TIP1178 22894 RESIDUE 1 C TIP
1329 TIP1179 22897 RESIDUE 1 C TIP
1330 TIP1180 22900 RESIDUE 1 C TIP
1331 TIP1181 22903 RESIDUE 1 C TIP
1332 TIP1182 22906 RESIDUE 1 C TIP
1333 TIP1183 22909 RESIDUE 1 C TIP
1334 TIP1184 22912 RESIDUE 1 C TIP
1335 TIP1185 22915 RESIDUE 1 C TIP
1336 TIP1186 22918 RESIDUE 1 C TIP
1337 TIP1187 22921 RESIDUE 1 C TIP
1338 TIP1188 22924 RESIDUE 1 C TIP
1339 TIP1189 22927 RESIDUE 1 C TIP
1340 TIP1190 22930 RESIDUE 1 C TIP
1341 TIP1191 22933 RESIDUE 1 C TIP
1342 TIP1192 22936 RESIDUE 1 C TIP
1343 TIP1193 22939 RESIDUE 1 C TIP
1344 TIP1194 22942 RESIDUE 1 C TIP
1345 TIP1195 22945 RESIDUE 1 C TIP
1346 TIP1196 22948 RESIDUE 1 C TIP
1347 TIP1197 22951 RESIDUE 1 C TIP
1348 TIP1198 22954 RESIDUE 1 C TIP
1349 TIP1199 22957 RESIDUE 1 C TIP
1350 TIP1200 22960 RESIDUE 1 C TIP
1351 TIP1201 22963 RESIDUE 1 C TIP
1352 TIP1202 22966 RESIDUE 1 C TIP
1353 TIP1203 22969 RESIDUE 1 C TIP
1354 TIP1204 22972 RESIDUE 1 C TIP
1355 TIP1205 22975 RESIDUE 1 C TIP
1356 TIP1206 22978 RESIDUE 1 C TIP
1357 TIP1207 22981 RESIDUE 1 C TIP
1358 TIP1208 22984 RESIDUE 1 C TIP
1359 TIP1209 22987 RESIDUE 1 C TIP
1360 TIP1210 22990 RESIDUE 1 C TIP
1361 TIP1211 22993 RESIDUE 1 C TIP
1362 TIP1212 22996 RESIDUE 1 C TIP
1363 TIP1213 22999 RESIDUE 1 C TIP
1364 TIP1214 23002 RESIDUE 1 C TIP
1365 TIP1215 23005 RESIDUE 1 C TIP
1366 TIP1216 23008 RESIDUE 1 C TIP
1367 TIP1217 23011 RESIDUE 1 C TIP
1368 TIP1218 23014 RESIDUE 1 C TIP
1369 TIP1219 23017 RESIDUE 1 C TIP
1370 TIP1220 23020 RESIDUE 1 C TIP
1371 TIP1221 23023 RESIDUE 1 C TIP
1372 TIP1222 23026 RESIDUE 1 C TIP
1373 TIP1223 23029 RESIDUE 1 C TIP
1374 TIP1224 23032 RESIDUE 1 C TIP
1375 TIP1225 23035 RESIDUE 1 C TIP
1376 TIP1226 23038 RESIDUE 1 C TIP
1377 TIP1227 23041 RESIDUE 1 C TIP
1378 TIP1228 23044 RESIDUE 1 C TIP
1379 TIP1229 23047 RESIDUE 1 C TIP
1380 TIP1230 23050 RESIDUE 1 C TIP
1381 TIP1231 23053 RESIDUE 1 C TIP
1382 TIP1232 23056 RESIDUE 1 C TIP
1383 TIP1233 23059 RESIDUE 1 C TIP
1384 TIP1234 23062 RESIDUE 1 C TIP
1385 TIP1235 23065 RESIDUE 1 C TIP
1386 TIP1236 23068 RESIDUE 1 C TIP
1387 TIP1237 23071 RESIDUE 1 C TIP
1388 TIP1238 23074 RESIDUE 1 C TIP
1389 TIP1239 23077 RESIDUE 1 C TIP
1390 TIP1240 23080 RESIDUE 1 C TIP
1391 TIP1241 23083 RESIDUE 1 C TIP
1392 TIP1242 23086 RESIDUE 1 C TIP
1393 TIP1243 23089 RESIDUE 1 C TIP
1394 TIP1244 23092 RESIDUE 1 C TIP
1395 TIP1245 23095 RESIDUE 1 C TIP
1396 TIP1246 23098 RESIDUE 1 C TIP
1397 TIP1247 23101 RESIDUE 1 C TIP
1398 TIP1248 23104 RESIDUE 1 C TIP
1399 TIP1249 23107 RESIDUE 1 C TIP
1400 TIP1250 23110 RESIDUE 1 C TIP
1401 TIP1251 23113 RESIDUE 1 C TIP
1402 TIP1252 23116 RESIDUE 1 C TIP
1403 TIP1253 23119 RESIDUE 1 C TIP
1404 TIP1254 23122 RESIDUE 1 C TIP
1405 TIP1255 23125 RESIDUE 1 C TIP
1406 TIP1256 23128 RESIDUE 1 C TIP
1407 TIP1257 23131 RESIDUE 1 C TIP
1408 TIP1258 23134 RESIDUE 1 C TIP
1409 TIP1259 23137 RESIDUE 1 C TIP
1410 TIP1260 23140 RESIDUE 1 C TIP
1411 TIP1261 23143 RESIDUE 1 C TIP
1412 TIP1262 23146 RESIDUE 1 C TIP
1413 TIP1263 23149 RESIDUE 1 C TIP
1414 TIP1264 23152 RESIDUE 1 C TIP
1415 TIP1265 23155 RESIDUE 1 C TIP
1416 TIP1266 23158 RESIDUE 1 C TIP
1417 TIP1267 23161 RESIDUE 1 C TIP
1418 TIP1268 23164 RESIDUE 1 C TIP
1419 TIP1269 23167 RESIDUE 1 C TIP
1420 TIP1270 23170 RESIDUE 1 C TIP
1421 TIP1271 23173 RESIDUE 1 C TIP
1422 TIP1272 23176 RESIDUE 1 C TIP
1423 TIP1273 23179 RESIDUE 1 C TIP
1424 TIP1274 23182 RESIDUE 1 C TIP
1425 TIP1275 23185 RESIDUE 1 C TIP
1426 TIP1276 23188 RESIDUE 1 C TIP
1427 TIP1277 23191 RESIDUE 1 C TIP
1428 TIP1278 23194 RESIDUE 1 C TIP
1429 TIP1279 23197 RESIDUE 1 C TIP
1430 TIP1280 23200 RESIDUE 1 C TIP
1431 TIP1281 23203 RESIDUE 1 C TIP
1432 TIP1282 23206 RESIDUE 1 C TIP
1433 TIP1283 23209 RESIDUE 1 C TIP
1434 TIP1284 23212 RESIDUE 1 C TIP
1435 TIP1285 23215 RESIDUE 1 C TIP
1436 TIP1286 23218 RESIDUE 1 C TIP
1437 TIP1287 23221 RESIDUE 1 C TIP
1438 TIP1288 23224 RESIDUE 1 C TIP
1439 TIP1289 23227 RESIDUE 1 C TIP
1440 TIP1290 23230 RESIDUE 1 C TIP
1441 TIP1291 23233 RESIDUE 1 C TIP
1442 TIP1292 23236 RESIDUE 1 C TIP
1443 TIP1293 23239 RESIDUE 1 C TIP
1444 TIP1294 23242 RESIDUE 1 C TIP
1445 TIP1295 23245 RESIDUE 1 C TIP
1446 TIP1296 23248 RESIDUE 1 C TIP
1447 TIP1297 23251 RESIDUE 1 C TIP
1448 TIP1298 23254 RESIDUE 1 C TIP
1449 TIP1299 23257 RESIDUE 1 C TIP
1450 TIP1300 23260 RESIDUE 1 C TIP
1451 TIP1301 23263 RESIDUE 1 C TIP
1452 TIP1302 23266 RESIDUE 1 C TIP
1453 TIP1303 23269 RESIDUE 1 C TIP
1454 TIP1304 23272 RESIDUE 1 C TIP
1455 TIP1305 23275 RESIDUE 1 C TIP
1456 TIP1306 23278 RESIDUE 1 C TIP
1457 TIP1307 23281 RESIDUE 1 C TIP
1458 TIP1308 23284 RESIDUE 1 C TIP
1459 TIP1309 23287 RESIDUE 1 C TIP
1460 TIP1310 23290 RESIDUE 1 C TIP
1461 TIP1311 23293 RESIDUE 1 C TIP
1462 TIP1312 23296 RESIDUE 1 C TIP
1463 TIP1313 23299 RESIDUE 1 C TIP
1464 TIP1314 23302 RESIDUE 1 C TIP
1465 TIP1315 23305 RESIDUE 1 C TIP
1466 TIP1316 23308 RESIDUE 1 C TIP
1467 TIP1317 23311 RESIDUE 1 C TIP
1468 TIP1318 23314 RESIDUE 1 C TIP
1469 TIP1319 23317 RESIDUE 1 C TIP
1470 TIP1320 23320 RESIDUE 1 C TIP
1471 TIP1321 23323 RESIDUE 1 C TIP
1472 TIP1322 23326 RESIDUE 1 C TIP
1473 TIP1323 23329 RESIDUE 1 C TIP
1474 TIP1324 23332 RESIDUE 1 C TIP
1475 TIP1325 23335 RESIDUE 1 C TIP
1476 TIP1326 23338 RESIDUE 1 C TIP
1477 TIP1327 23341 RESIDUE 1 C TIP
1478 TIP1328 23344 RESIDUE 1 C TIP
1479 TIP1329 23347 RESIDUE 1 C TIP
1480 TIP1330 23350 RESIDUE 1 C TIP
1481 TIP1331 23353 RESIDUE 1 C TIP
1482 TIP1332 23356 RESIDUE 1 C TIP
1483 TIP1333 23359 RESIDUE 1 C TIP
1484 TIP1334 23362 RESIDUE 1 C TIP
1485 TIP1335 23365 RESIDUE 1 C TIP
1486 TIP1336 23368 RESIDUE 1 C TIP
1487 TIP1337 23371 RESIDUE 1 C TIP
1488 TIP1338 23374 RESIDUE 1 C TIP
1489 TIP1339 23377 RESIDUE 1 C TIP
1490 TIP1340 23380 RESIDUE 1 C TIP
1491 TIP1341 23383 RESIDUE 1 C TIP
1492 TIP1342 23386 RESIDUE 1 C TIP
1493 TIP1343 23389 RESIDUE 1 C TIP
1494 TIP1344 23392 RESIDUE 1 C TIP
1495 TIP1345 23395 RESIDUE 1 C TIP
1496 TIP1346 23398 RESIDUE 1 C TIP
1497 TIP1347 23401 RESIDUE 1 C TIP
1498 TIP1348 23404 RESIDUE 1 C TIP
1499 TIP1349 23407 RESIDUE 1 C TIP
1500 TIP1350 23410 RESIDUE 1 C TIP
1501 TIP1351 23413 RESIDUE 1 C TIP
1502 TIP1352 23416 RESIDUE 1 C TIP
1503 TIP1353 23419 RESIDUE 1 C TIP
1504 TIP1354 23422 RESIDUE 1 C TIP
1505 TIP1355 23425 RESIDUE 1 C TIP
1506 TIP1356 23428 RESIDUE 1 C TIP
1507 TIP1357 23431 RESIDUE 1 C TIP
1508 TIP1358 23434 RESIDUE 1 C TIP
1509 TIP1359 23437 RESIDUE 1 C TIP
1510 TIP1360 23440 RESIDUE 1 C TIP
1511 TIP1361 23443 RESIDUE 1 C TIP
1512 TIP1362 23446 RESIDUE 1 C TIP
1513 TIP1363 23449 RESIDUE 1 C TIP
1514 TIP1364 23452 RESIDUE 1 C TIP
1515 TIP1365 23455 RESIDUE 1 C TIP
1516 TIP1366 23458 RESIDUE 1 C TIP
1517 TIP1367 23461 RESIDUE 1 C TIP
1518 TIP1368 23464 RESIDUE 1 C TIP
1519 TIP1369 23467 RESIDUE 1 C TIP
1520 TIP1370 23470 RESIDUE 1 C TIP
1521 TIP1371 23473 RESIDUE 1 C TIP
1522 TIP1372 23476 RESIDUE 1 C TIP
1523 TIP1373 23479 RESIDUE 1 C TIP
1524 TIP1374 23482 RESIDUE 1 C TIP
1525 TIP1375 23485 RESIDUE 1 C TIP
1526 TIP1376 23488 RESIDUE 1 C TIP
1527 TIP1377 23491 RESIDUE 1 C TIP
1528 TIP1378 23494 RESIDUE 1 C TIP
1529 TIP1379 23497 RESIDUE 1 C TIP
1530 TIP1380 23500 RESIDUE 1 C TIP
1531 TIP1381 23503 RESIDUE 1 C TIP
1532 TIP1382 23506 RESIDUE 1 C TIP
1533 TIP1383 23509 RESIDUE 1 C TIP
1534 TIP1384 23512 RESIDUE 1 C TIP
1535 TIP1385 23515 RESIDUE 1 C TIP
1536 TIP1386 23518 RESIDUE 1 C TIP
1537 TIP1387 23521 RESIDUE 1 C TIP
1538 TIP1388 23524 RESIDUE 1 C TIP
1539 TIP1389 23527 RESIDUE 1 C TIP
1540 TIP1390 23530 RESIDUE 1 C TIP
1541 TIP1391 23533 RESIDUE 1 C TIP
1542 TIP1392 23536 RESIDUE 1 C TIP
1543 TIP1393 23539 RESIDUE 1 C TIP
1544 TIP1394 23542 RESIDUE 1 C TIP
1545 TIP1395 23545 RESIDUE 1 C TIP
1546 TIP1396 23548 RESIDUE 1 C TIP
1547 TIP1397 23551 RESIDUE 1 C TIP
1548 TIP1398 23554 RESIDUE 1 C TIP
1549 TIP1399 23557 RESIDUE 1 C TIP
1550 TIP1400 23560 RESIDUE 1 C TIP
1551 TIP1401 23563 RESIDUE 1 C TIP
1552 TIP1402 23566 RESIDUE 1 C TIP
1553 TIP1403 23569 RESIDUE 1 C TIP
1554 TIP1404 23572 RESIDUE 1 C TIP
1555 TIP1405 23575 RESIDUE 1 C TIP
1556 TIP1406 23578 RESIDUE 1 C TIP
1557 TIP1407 23581 RESIDUE 1 C TIP
1558 TIP1408 23584 RESIDUE 1 C TIP
1559 TIP1409 23587 RESIDUE 1 C TIP
1560 TIP1410 23590 RESIDUE 1 C TIP
1561 TIP1411 23593 RESIDUE 1 C TIP
1562 TIP1412 23596 RESIDUE 1 C TIP
1563 TIP1413 23599 RESIDUE 1 C TIP
1564 TIP1414 23602 RESIDUE 1 C TIP
1565 TIP1415 23605 RESIDUE 1 C TIP
1566 TIP1416 23608 RESIDUE 1 C TIP
1567 TIP1417 23611 RESIDUE 1 C TIP
1568 TIP1418 23614 RESIDUE 1 C TIP
1569 TIP1419 23617 RESIDUE 1 C TIP
1570 TIP1420 23620 RESIDUE 1 C TIP
1571 TIP1421 23623 RESIDUE 1 C TIP
1572 TIP1422 23626 RESIDUE 1 C TIP
1573 TIP1423 23629 RESIDUE 1 C TIP
1574 TIP1424 23632 RESIDUE 1 C TIP
1575 TIP1425 23635 RESIDUE 1 C TIP
1576 TIP1426 23638 RESIDUE 1 C TIP
1577 TIP1427 23641 RESIDUE 1 C TIP
1578 TIP1428 23644 RESIDUE 1 C TIP
1579 TIP1429 23647 RESIDUE 1 C TIP
1580 TIP1430 23650 RESIDUE 1 C TIP
1581 TIP1431 23653 RESIDUE 1 C TIP
1582 TIP1432 23656 RESIDUE 1 C TIP
1583 TIP1433 23659 RESIDUE 1 C TIP
1584 TIP1434 23662 RESIDUE 1 C TIP
1585 TIP1435 23665 RESIDUE 1 C TIP
1586 TIP1436 23668 RESIDUE 1 C TIP
1587 TIP1437 23671 RESIDUE 1 C TIP
1588 TIP1438 23674 RESIDUE 1 C TIP
1589 TIP1439 23677 RESIDUE 1 C TIP
1590 TIP1440 23680 RESIDUE 1 C TIP
1591 TIP1441 23683 RESIDUE 1 C TIP
1592 TIP1442 23686 RESIDUE 1 C TIP
1593 TIP1443 23689 RESIDUE 1 C TIP
1594 TIP1444 23692 RESIDUE 1 C TIP
1595 TIP1445 23695 RESIDUE 1 C TIP
1596 TIP1446 23698 RESIDUE 1 C TIP
1597 TIP1447 23701 RESIDUE 1 C TIP
1598 TIP1448 23704 RESIDUE 1 C TIP
1599 TIP1449 23707 RESIDUE 1 C TIP
1600 TIP1450 23710 RESIDUE 1 C TIP
1601 TIP1451 23713 RESIDUE 1 C TIP
1602 TIP1452 23716 RESIDUE 1 C TIP
1603 TIP1453 23719 RESIDUE 1 C TIP
1604 TIP1454 23722 RESIDUE 1 C TIP
1605 TIP1455 23725 RESIDUE 1 C TIP
1606 TIP1456 23728 RESIDUE 1 C TIP
1607 TIP1457 23731 RESIDUE 1 C TIP
1608 TIP1458 23734 RESIDUE 1 C TIP
1609 TIP1459 23737 RESIDUE 1 C TIP
1610 TIP1460 23740 RESIDUE 1 C TIP
1611 TIP1461 23743 RESIDUE 1 C TIP
1612 TIP1462 23746 RESIDUE 1 C TIP
1613 TIP1463 23749 RESIDUE 1 C TIP
1614 TIP1464 23752 RESIDUE 1 C TIP
1615 TIP1465 23755 RESIDUE 1 C TIP
1616 TIP1466 23758 RESIDUE 1 C TIP
1617 TIP1467 23761 RESIDUE 1 C TIP
1618 TIP1468 23764 RESIDUE 1 C TIP
1619 TIP1469 23767 RESIDUE 1 C TIP
1620 TIP1470 23770 RESIDUE 1 C TIP
1621 TIP1471 23773 RESIDUE 1 C TIP
1622 TIP1472 23776 RESIDUE 1 C TIP
1623 TIP1473 23779 RESIDUE 1 C TIP
1624 TIP1474 23782 RESIDUE 1 C TIP
1625 TIP1475 23785 RESIDUE 1 C TIP
1626 TIP1476 23788 RESIDUE 1 C TIP
1627 TIP1477 23791 RESIDUE 1 C TIP
1628 TIP1478 23794 RESIDUE 1 C TIP
1629 TIP1479 23797 RESIDUE 1 C TIP
1630 TIP1480 23800 RESIDUE 1 C TIP
1631 TIP1481 23803 RESIDUE 1 C TIP
1632 TIP1482 23806 RESIDUE 1 C TIP
1633 TIP1483 23809 RESIDUE 1 C TIP
1634 TIP1484 23812 RESIDUE 1 C TIP
1635 TIP1485 23815 RESIDUE 1 C TIP
1636 TIP1486 23818 RESIDUE 1 C TIP
1637 TIP1487 23821 RESIDUE 1 C TIP
1638 TIP1488 23824 RESIDUE 1 C TIP
1639 TIP1489 23827 RESIDUE 1 C TIP
1640 TIP1490 23830 RESIDUE 1 C TIP
1641 TIP1491 23833 RESIDUE 1 C TIP
1642 TIP1492 23836 RESIDUE 1 C TIP
1643 TIP1493 23839 RESIDUE 1 C TIP
1644 TIP1494 23842 RESIDUE 1 C TIP
1645 TIP1495 23845 RESIDUE 1 C TIP
1646 TIP1496 23848 RESIDUE 1 C TIP
1647 TIP1497 23851 RESIDUE 1 C TIP
1648 TIP1498 23854 RESIDUE 1 C TIP
1649 TIP1499 23857 RESIDUE 1 C TIP
1650 TIP1500 23860 RESIDUE 1 C TIP
1651 TIP1501 23863 RESIDUE 1 C TIP
1652 TIP1502 23866 RESIDUE 1 C TIP
1653 TIP1503 23869 RESIDUE 1 C TIP
1654 TIP1504 23872 RESIDUE 1 C TIP
1655 TIP1505 23875 RESIDUE 1 C TIP
1656 TIP1506 23878 RESIDUE 1 C TIP
1657 TIP1507 23881 RESIDUE 1 C TIP
1658 TIP1508 23884 RESIDUE 1 C TIP
1659 TIP1509 23887 RESIDUE 1 C TIP
1660 TIP1510 23890 RESIDUE 1 C TIP
1661 TIP1511 23893 RESIDUE 1 C TIP
1662 TIP1512 23896 RESIDUE 1 C TIP
1663 TIP1513 23899 RESIDUE 1 C TIP
1664 TIP1514 23902 RESIDUE 1 C TIP
1665 TIP1515 23905 RESIDUE 1 C TIP
1666 TIP1516 23908 RESIDUE 1 C TIP
1667 TIP1517 23911 RESIDUE 1 C TIP
1668 TIP1518 23914 RESIDUE 1 C TIP
1669 TIP1519 23917 RESIDUE 1 C TIP
1670 TIP1520 23920 RESIDUE 1 C TIP
1671 TIP1521 23923 RESIDUE 1 C TIP
1672 TIP1522 23926 RESIDUE 1 C TIP
1673 TIP1523 23929 RESIDUE 1 C TIP
1674 TIP1524 23932 RESIDUE 1 C TIP
1675 TIP1525 23935 RESIDUE 1 C TIP
1676 TIP1526 23938 RESIDUE 1 C TIP
1677 TIP1527 23941 RESIDUE 1 C TIP
1678 TIP1528 23944 RESIDUE 1 C TIP
1679 TIP1529 23947 RESIDUE 1 C TIP
1680 TIP1530 23950 RESIDUE 1 C TIP
1681 TIP1531 23953 RESIDUE 1 C TIP
1682 TIP1532 23956 RESIDUE 1 C TIP
1683 TIP1533 23959 RESIDUE 1 C TIP
1684 TIP1534 23962 RESIDUE 1 C TIP
1685 TIP1535 23965 RESIDUE 1 C TIP
1686 TIP1536 23968 RESIDUE 1 C TIP
1687 TIP1537 23971 RESIDUE 1 C TIP
1688 TIP1538 23974 RESIDUE 1 C TIP
1689 TIP1539 23977 RESIDUE 1 C TIP
1690 TIP1540 23980 RESIDUE 1 C TIP
1691 TIP1541 23983 RESIDUE 1 C TIP
1692 TIP1542 23986 RESIDUE 1 C TIP
1693 TIP1543 23989 RESIDUE 1 C TIP
1694 TIP1544 23992 RESIDUE 1 C TIP
1695 TIP1545 23995 RESIDUE 1 C TIP
1696 TIP1546 23998 RESIDUE 1 C TIP
1697 TIP1547 24001 RESIDUE 1 C TIP
1698 TIP1548 24004 RESIDUE 1 C TIP
1699 TIP1549 24007 RESIDUE 1 C TIP
1700 TIP1550 24010 RESIDUE 1 C TIP
1701 TIP1551 24013 RESIDUE 1 C TIP
1702 TIP1552 24016 RESIDUE 1 C TIP
1703 TIP1553 24019 RESIDUE 1 C TIP
1704 TIP1554 24022 RESIDUE 1 C TIP
1705 TIP1555 24025 RESIDUE 1 C TIP
1706 TIP1556 24028 RESIDUE 1 C TIP
1707 TIP1557 24031 RESIDUE 1 C TIP
1708 TIP1558 24034 RESIDUE 1 C TIP
1709 TIP1559 24037 RESIDUE 1 C TIP
1710 TIP1560 24040 RESIDUE 1 C TIP
1711 TIP1561 24043 RESIDUE 1 C TIP
1712 TIP1562 24046 RESIDUE 1 C TIP
1713 TIP1563 24049 RESIDUE 1 C TIP
1714 TIP1564 24052 RESIDUE 1 C TIP
1715 TIP1565 24055 RESIDUE 1 C TIP
1716 TIP1566 24058 RESIDUE 1 C TIP
1717 TIP1567 24061 RESIDUE 1 C TIP
1718 TIP1568 24064 RESIDUE 1 C TIP
1719 TIP1569 24067 RESIDUE 1 C TIP
1720 TIP1570 24070 RESIDUE 1 C TIP
1721 TIP1571 24073 RESIDUE 1 C TIP
1722 TIP1572 24076 RESIDUE 1 C TIP
1723 TIP1573 24079 RESIDUE 1 C TIP
1724 TIP1574 24082 RESIDUE 1 C TIP
1725 TIP1575 24085 RESIDUE 1 C TIP
1726 TIP1576 24088 RESIDUE 1 C TIP
1727 TIP1577 24091 RESIDUE 1 C TIP
1728 TIP1578 24094 RESIDUE 1 C TIP
1729 TIP1579 24097 RESIDUE 1 C TIP
1730 TIP1580 24100 RESIDUE 1 C TIP
1731 TIP1581 24103 RESIDUE 1 C TIP
1732 TIP1582 24106 RESIDUE 1 C TIP
1733 TIP1583 24109 RESIDUE 1 C TIP
1734 TIP1584 24112 RESIDUE 1 C TIP
1735 TIP1585 24115 RESIDUE 1 C TIP
1736 TIP1586 24118 RESIDUE 1 C TIP
1737 TIP1587 24121 RESIDUE 1 C TIP
1738 TIP1588 24124 RESIDUE 1 C TIP
1739 TIP1589 24127 RESIDUE 1 C TIP
1740 TIP1590 24130 RESIDUE 1 C TIP
1741 TIP1591 24133 RESIDUE 1 C TIP
1742 TIP1592 24136 RESIDUE 1 C TIP
1743 TIP1593 24139 RESIDUE 1 C TIP
1744 TIP1594 24142 RESIDUE 1 C TIP
1745 TIP1595 24145 RESIDUE 1 C TIP
1746 TIP1596 24148 RESIDUE 1 C TIP
1747 TIP1597 24151 RESIDUE 1 C TIP
1748 TIP1598 24154 RESIDUE 1 C TIP
1749 TIP1599 24157 RESIDUE 1 C TIP
1750 TIP1600 24160 RESIDUE 1 C TIP
1751 TIP1601 24163 RESIDUE 1 C TIP
1752 TIP1602 24166 RESIDUE 1 C TIP
1753 TIP1603 24169 RESIDUE 1 C TIP
1754 TIP1604 24172 RESIDUE 1 C TIP
1755 TIP1605 24175 RESIDUE 1 C TIP
1756 TIP1606 24178 RESIDUE 1 C TIP
1757 TIP1607 24181 RESIDUE 1 C TIP
1758 TIP1608 24184 RESIDUE 1 C TIP
1759 TIP1609 24187 RESIDUE 1 C TIP
1760 TIP1610 24190 RESIDUE 1 C TIP
1761 TIP1611 24193 RESIDUE 1 C TIP
1762 TIP1612 24196 RESIDUE 1 C TIP
1763 TIP1613 24199 RESIDUE 1 C TIP
1764 TIP1614 24202 RESIDUE 1 C TIP
1765 TIP1615 24205 RESIDUE 1 C TIP
1766 TIP1616 24208 RESIDUE 1 C TIP
1767 TIP1617 24211 RESIDUE 1 C TIP
1768 TIP1618 24214 RESIDUE 1 C TIP
1769 TIP1619 24217 RESIDUE 1 C TIP
1770 TIP1620 24220 RESIDUE 1 C TIP
1771 TIP1621 24223 RESIDUE 1 C TIP
1772 TIP1622 24226 RESIDUE 1 C TIP
1773 TIP1623 24229 RESIDUE 1 C TIP
1774 TIP1624 24232 RESIDUE 1 C TIP
1775 TIP1625 24235 RESIDUE 1 C TIP
1776 TIP1626 24238 RESIDUE 1 C TIP
1777 TIP1627 24241 RESIDUE 1 C TIP
1778 TIP1628 24244 RESIDUE 1 C TIP
1779 TIP1629 24247 RESIDUE 1 C TIP
1780 TIP1630 24250 RESIDUE 1 C TIP
1781 TIP1631 24253 RESIDUE 1 C TIP
1782 TIP1632 24256 RESIDUE 1 C TIP
1783 TIP1633 24259 RESIDUE 1 C TIP
1784 TIP1634 24262 RESIDUE 1 C TIP
1785 TIP1635 24265 RESIDUE 1 C TIP
1786 TIP1636 24268 RESIDUE 1 C TIP
1787 TIP1637 24271 RESIDUE 1 C TIP
1788 TIP1638 24274 RESIDUE 1 C TIP
1789 TIP1639 24277 RESIDUE 1 C TIP
1790 TIP1640 24280 RESIDUE 1 C TIP
1791 TIP1641 24283 RESIDUE 1 C TIP
1792 TIP1642 24286 RESIDUE 1 C TIP
1793 TIP1643 24289 RESIDUE 1 C TIP
1794 TIP1644 24292 RESIDUE 1 C TIP
1795 TIP1645 24295 RESIDUE 1 C TIP
1796 TIP1646 24298 RESIDUE 1 C TIP
1797 TIP1647 24301 RESIDUE 1 C TIP
1798 TIP1648 24304 RESIDUE 1 C TIP
1799 TIP1649 24307 RESIDUE 1 C TIP
1800 TIP1650 24310 RESIDUE 1 C TIP
1801 TIP1651 24313 RESIDUE 1 C TIP
1802 TIP1652 24316 RESIDUE 1 C TIP
1803 TIP1653 24319 RESIDUE 1 C TIP
1804 TIP1654 24322 RESIDUE 1 C TIP
1805 TIP1655 24325 RESIDUE 1 C TIP
1806 TIP1656 24328 RESIDUE 1 C TIP
1807 TIP1657 24331 RESIDUE 1 C TIP
1808 TIP1658 24334 RESIDUE 1 C TIP
1809 TIP1659 24337 RESIDUE 1 C TIP
1810 TIP1660 24340 RESIDUE 1 C TIP
1811 TIP1661 24343 RESIDUE 1 C TIP
1812 TIP1662 24346 RESIDUE 1 C TIP
1813 TIP1663 24349 RESIDUE 1 C TIP
1814 TIP1664 24352 RESIDUE 1 C TIP
1815 TIP1665 24355 RESIDUE 1 C TIP
1816 TIP1666 24358 RESIDUE 1 C TIP
1817 TIP1667 24361 RESIDUE 1 C TIP
1818 TIP1668 24364 RESIDUE 1 C TIP
1819 TIP1669 24367 RESIDUE 1 C TIP
1820 TIP1670 24370 RESIDUE 1 C TIP
1821 TIP1671 24373 RESIDUE 1 C TIP
1822 TIP1672 24376 RESIDUE 1 C TIP
1823 TIP1673 24379 RESIDUE 1 C TIP
1824 TIP1674 24382 RESIDUE 1 C TIP
1825 TIP1675 24385 RESIDUE 1 C TIP
1826 TIP1676 24388 RESIDUE 1 C TIP
1827 TIP1677 24391 RESIDUE 1 C TIP
1828 TIP1678 24394 RESIDUE 1 C TIP
1829 TIP1679 24397 RESIDUE 1 C TIP
1830 TIP1680 24400 RESIDUE 1 C TIP
1831 TIP1681 24403 RESIDUE 1 C TIP
1832 TIP1682 24406 RESIDUE 1 C TIP
1833 TIP1683 24409 RESIDUE 1 C TIP
1834 TIP1684 24412 RESIDUE 1 C TIP
1835 TIP1685 24415 RESIDUE 1 C TIP
1836 TIP1686 24418 RESIDUE 1 C TIP
1837 TIP1687 24421 RESIDUE 1 C TIP
1838 TIP1688 24424 RESIDUE 1 C TIP
1839 TIP1689 24427 RESIDUE 1 C TIP
1840 TIP1690 24430 RESIDUE 1 C TIP
1841 TIP1691 24433 RESIDUE 1 C TIP
1842 TIP1692 24436 RESIDUE 1 C TIP
1843 TIP1693 24439 RESIDUE 1 C TIP
1844 TIP1694 24442 RESIDUE 1 C TIP
1845 TIP1695 24445 RESIDUE 1 C TIP
1846 TIP1696 24448 RESIDUE 1 C TIP
1847 TIP1697 24451 RESIDUE 1 C TIP
1848 TIP1698 24454 RESIDUE 1 C TIP
1849 TIP1699 24457 RESIDUE 1 C TIP
1850 TIP1700 24460 RESIDUE 1 C TIP
1851 TIP1701 24463 RESIDUE 1 C TIP
1852 TIP1702 24466 RESIDUE 1 C TIP
1853 TIP1703 24469 RESIDUE 1 C TIP
1854 TIP1704 24472 RESIDUE 1 C TIP
1855 TIP1705 24475 RESIDUE 1 C TIP
1856 TIP1706 24478 RESIDUE 1 C TIP
1857 TIP1707 24481 RESIDUE 1 C TIP
1858 TIP1708 24484 RESIDUE 1 C TIP
1859 TIP1709 24487 RESIDUE 1 C TIP
1860 TIP1710 24490 RESIDUE 1 C TIP
1861 TIP1711 24493 RESIDUE 1 C TIP
1862 TIP1712 24496 RESIDUE 1 C TIP
1863 TIP1713 24499 RESIDUE 1 C TIP
1864 TIP1714 24502 RESIDUE 1 C TIP
1865 TIP1715 24505 RESIDUE 1 C TIP
1866 TIP1716 24508 RESIDUE 1 C TIP
1867 TIP1717 24511 RESIDUE 1 C TIP
1868 TIP1718 24514 RESIDUE 1 C TIP
1869 TIP1719 24517 RESIDUE 1 C TIP
1870 TIP1720 24520 RESIDUE 1 C TIP
1871 TIP1721 24523 RESIDUE 1 C TIP
1872 TIP1722 24526 RESIDUE 1 C TIP
1873 TIP1723 24529 RESIDUE 1 C TIP
1874 TIP1724 24532 RESIDUE 1 C TIP
1875 TIP1725 24535 RESIDUE 1 C TIP
1876 TIP1726 24538 RESIDUE 1 C TIP
1877 TIP1727 24541 RESIDUE 1 C TIP
1878 TIP1728 24544 RESIDUE 1 C TIP
1879 TIP1729 24547 RESIDUE 1 C TIP
1880 TIP1730 24550 RESIDUE 1 C TIP
1881 TIP1731 24553 RESIDUE 1 C TIP
1882 TIP1732 24556 RESIDUE 1 C TIP
1883 TIP1733 24559 RESIDUE 1 C TIP
1884 TIP1734 24562 RESIDUE 1 C TIP
1885 TIP1735 24565 RESIDUE 1 C TIP
1886 TIP1736 24568 RESIDUE 1 C TIP
1887 TIP1737 24571 RESIDUE 1 C TIP
1888 TIP1738 24574 RESIDUE 1 C TIP
1889 TIP1739 24577 RESIDUE 1 C TIP
1890 TIP1740 24580 RESIDUE 1 C TIP
1891 TIP1741 24583 RESIDUE 1 C TIP
1892 TIP1742 24586 RESIDUE 1 C TIP
1893 TIP1743 24589 RESIDUE 1 C TIP
1894 TIP1744 24592 RESIDUE 1 C TIP
1895 TIP1745 24595 RESIDUE 1 C TIP
1896 TIP1746 24598 RESIDUE 1 C TIP
1897 TIP1747 24601 RESIDUE 1 C TIP
1898 TIP1748 24604 RESIDUE 1 C TIP
1899 TIP1749 24607 RESIDUE 1 C TIP
1900 TIP1750 24610 RESIDUE 1 C TIP
1901 TIP1751 24613 RESIDUE 1 C TIP
1902 TIP1752 24616 RESIDUE 1 C TIP
1903 TIP1753 24619 RESIDUE 1 C TIP
1904 TIP1754 24622 RESIDUE 1 C TIP
1905 TIP1755 24625 RESIDUE 1 C TIP
1906 TIP1756 24628 RESIDUE 1 C TIP
1907 TIP1757 24631 RESIDUE 1 C TIP
1908 TIP1758 24634 RESIDUE 1 C TIP
1909 TIP1759 24637 RESIDUE 1 C TIP
1910 TIP1760 24640 RESIDUE 1 C TIP
1911 TIP1761 24643 RESIDUE 1 C TIP
1912 TIP1762 24646 RESIDUE 1 C TIP
1913 TIP1763 24649 RESIDUE 1 C TIP
1914 TIP1764 24652 RESIDUE 1 C TIP
1915 TIP1765 24655 RESIDUE 1 C TIP
1916 TIP1766 24658 RESIDUE 1 C TIP
1917 TIP1767 24661 RESIDUE 1 C TIP
1918 TIP1768 24664 RESIDUE 1 C TIP
1919 TIP1769 24667 RESIDUE 1 C TIP
1920 TIP1770 24670 RESIDUE 1 C TIP
1921 TIP1771 24673 RESIDUE 1 C TIP
1922 TIP1772 24676 RESIDUE 1 C TIP
1923 TIP1773 24679 RESIDUE 1 C TIP
1924 TIP1774 24682 RESIDUE 1 C TIP
1925 TIP1775 24685 RESIDUE 1 C TIP
1926 TIP1776 24688 RESIDUE 1 C TIP
1927 TIP1777 24691 RESIDUE 1 C TIP
1928 TIP1778 24694 RESIDUE 1 C TIP
1929 TIP1779 24697 RESIDUE 1 C TIP
1930 TIP1780 24700 RESIDUE 1 C TIP
1931 TIP1781 24703 RESIDUE 1 C TIP
1932 TIP1782 24706 RESIDUE 1 C TIP
1933 TIP1783 24709 RESIDUE 1 C TIP
1934 TIP1784 24712 RESIDUE 1 C TIP
1935 TIP1785 24715 RESIDUE 1 C TIP
1936 TIP1786 24718 RESIDUE 1 C TIP
1937 TIP1787 24721 RESIDUE 1 C TIP
1938 TIP1788 24724 RESIDUE 1 C TIP
1939 TIP1789 24727 RESIDUE 1 C TIP
1940 TIP1790 24730 RESIDUE 1 C TIP
1941 TIP1791 24733 RESIDUE 1 C TIP
1942 TIP1792 24736 RESIDUE 1 C TIP
1943 TIP1793 24739 RESIDUE 1 C TIP
1944 TIP1794 24742 RESIDUE 1 C TIP
1945 TIP1795 24745 RESIDUE 1 C TIP
1946 TIP1796 24748 RESIDUE 1 C TIP
1947 TIP1797 24751 RESIDUE 1 C TIP
1948 TIP1798 24754 RESIDUE 1 C TIP
1949 TIP1799 24757 RESIDUE 1 C TIP
1950 TIP1800 24760 RESIDUE 1 C TIP
1951 TIP1801 24763 RESIDUE 1 C TIP
1952 TIP1802 24766 RESIDUE 1 C TIP
1953 TIP1803 24769 RESIDUE 1 C TIP
1954 TIP1804 24772 RESIDUE 1 C TIP
1955 TIP1805 24775 RESIDUE 1 C TIP
1956 TIP1806 24778 RESIDUE 1 C TIP
1957 TIP1807 24781 RESIDUE 1 C TIP
1958 TIP1808 24784 RESIDUE 1 C TIP
1959 TIP1809 24787 RESIDUE 1 C TIP
1960 TIP1810 24790 RESIDUE 1 C TIP
1961 TIP1811 24793 RESIDUE 1 C TIP
1962 TIP1812 24796 RESIDUE 1 C TIP
1963 TIP1813 24799 RESIDUE 1 C TIP
1964 TIP1814 24802 RESIDUE 1 C TIP
1965 TIP1815 24805 RESIDUE 1 C TIP
1966 TIP1816 24808 RESIDUE 1 C TIP
1967 TIP1817 24811 RESIDUE 1 C TIP
1968 TIP1818 24814 RESIDUE 1 C TIP
1969 TIP1819 24817 RESIDUE 1 C TIP
1970 TIP1820 24820 RESIDUE 1 C TIP
1971 TIP1821 24823 RESIDUE 1 C TIP
1972 TIP1822 24826 RESIDUE 1 C TIP
1973 TIP1823 24829 RESIDUE 1 C TIP
1974 TIP1824 24832 RESIDUE 1 C TIP
1975 TIP1825 24835 RESIDUE 1 C TIP
1976 TIP1826 24838 RESIDUE 1 C TIP
1977 TIP1827 24841 RESIDUE 1 C TIP
1978 TIP1828 24844 RESIDUE 1 C TIP
1979 TIP1829 24847 RESIDUE 1 C TIP
1980 TIP1830 24850 RESIDUE 1 C TIP
1981 TIP1831 24853 RESIDUE 1 C TIP
1982 TIP1832 24856 RESIDUE 1 C TIP
1983 TIP1833 24859 RESIDUE 1 C TIP
1984 TIP1834 24862 RESIDUE 1 C TIP
1985 TIP1835 24865 RESIDUE 1 C TIP
1986 TIP1836 24868 RESIDUE 1 C TIP
1987 TIP1837 24871 RESIDUE 1 C TIP
1988 TIP1838 24874 RESIDUE 1 C TIP
1989 TIP1839 24877 RESIDUE 1 C TIP
1990 TIP1840 24880 RESIDUE 1 C TIP
1991 TIP1841 24883 RESIDUE 1 C TIP
1992 TIP1842 24886 RESIDUE 1 C TIP
1993 TIP1843 24889 RESIDUE 1 C TIP
1994 TIP1844 24892 RESIDUE 1 C TIP
1995 TIP1845 24895 RESIDUE 1 C TIP
1996 TIP1846 24898 RESIDUE 1 C TIP
1997 TIP1847 24901 RESIDUE 1 C TIP
1998 TIP1848 24904 RESIDUE 1 C TIP
1999 TIP1849 24907 RESIDUE 1 C TIP
2000 TIP1850 24910 RESIDUE 1 C TIP
2001 TIP1851 24913 RESIDUE 1 C TIP
2002 TIP1852 24916 RESIDUE 1 C TIP
2003 TIP1853 24919 RESIDUE 1 C TIP
2004 TIP1854 24922 RESIDUE 1 C TIP
2005 TIP1855 24925 RESIDUE 1 C TIP
2006 TIP1856 24928 RESIDUE 1 C TIP
2007 TIP1857 24931 RESIDUE 1 C TIP
2008 TIP1858 24934 RESIDUE 1 C TIP
2009 TIP1859 24937 RESIDUE 1 C TIP
2010 TIP1860 24940 RESIDUE 1 C TIP
2011 TIP1861 24943 RESIDUE 1 C TIP
2012 TIP1862 24946 RESIDUE 1 C TIP
2013 TIP1863 24949 RESIDUE 1 C TIP
2014 TIP1864 24952 RESIDUE 1 C TIP
2015 TIP1865 24955 RESIDUE 1 C TIP
2016 TIP1866 24958 RESIDUE 1 C TIP
2017 TIP1867 24961 RESIDUE 1 C TIP
2018 TIP1868 24964 RESIDUE 1 C TIP
2019 TIP1869 24967 RESIDUE 1 C TIP
2020 TIP1870 24970 RESIDUE 1 C TIP
2021 TIP1871 24973 RESIDUE 1 C TIP
2022 TIP1872 24976 RESIDUE 1 C TIP
2023 TIP1873 24979 RESIDUE 1 C TIP
2024 TIP1874 24982 RESIDUE 1 C TIP
2025 TIP1875 24985 RESIDUE 1 C TIP
2026 TIP1876 24988 RESIDUE 1 C TIP
2027 TIP1877 24991 RESIDUE 1 C TIP
2028 TIP1878 24994 RESIDUE 1 C TIP
2029 TIP1879 24997 RESIDUE 1 C TIP
2030 TIP1880 25000 RESIDUE 1 C TIP
2031 TIP1881 25003 RESIDUE 1 C TIP
2032 TIP1882 25006 RESIDUE 1 C TIP
2033 TIP1883 25009 RESIDUE 1 C TIP
2034 TIP1884 25012 RESIDUE 1 C TIP
2035 TIP1885 25015 RESIDUE 1 C TIP
2036 TIP1886 25018 RESIDUE 1 C TIP
2037 TIP1887 25021 RESIDUE 1 C TIP
2038 TIP1888 25024 RESIDUE 1 C TIP
2039 TIP1889 25027 RESIDUE 1 C TIP
2040 TIP1890 25030 RESIDUE 1 C TIP
2041 TIP1891 25033 RESIDUE 1 C TIP
2042 TIP1892 25036 RESIDUE 1 C TIP
2043 TIP1893 25039 RESIDUE 1 C TIP
2044 TIP1894 25042 RESIDUE 1 C TIP
2045 TIP1895 25045 RESIDUE 1 C TIP
2046 TIP1896 25048 RESIDUE 1 C TIP
2047 TIP1897 25051 RESIDUE 1 C TIP
2048 TIP1898 25054 RESIDUE 1 C TIP
2049 TIP1899 25057 RESIDUE 1 C TIP
2050 TIP1900 25060 RESIDUE 1 C TIP
2051 TIP1901 25063 RESIDUE 1 C TIP
2052 TIP1902 25066 RESIDUE 1 C TIP
2053 TIP1903 25069 RESIDUE 1 C TIP
2054 TIP1904 25072 RESIDUE 1 C TIP
2055 TIP1905 25075 RESIDUE 1 C TIP
2056 TIP1906 25078 RESIDUE 1 C TIP
2057 TIP1907 25081 RESIDUE 1 C TIP
2058 TIP1908 25084 RESIDUE 1 C TIP
2059 TIP1909 25087 RESIDUE 1 C TIP
2060 TIP1910 25090 RESIDUE 1 C TIP
2061 TIP1911 25093 RESIDUE 1 C TIP
2062 TIP1912 25096 RESIDUE 1 C TIP
2063 TIP1913 25099 RESIDUE 1 C TIP
2064 TIP1914 25102 RESIDUE 1 C TIP
2065 TIP1915 25105 RESIDUE 1 C TIP
2066 TIP1916 25108 RESIDUE 1 C TIP
2067 TIP1917 25111 RESIDUE 1 C TIP
2068 TIP1918 25114 RESIDUE 1 C TIP
2069 TIP1919 25117 RESIDUE 1 C TIP
2070 TIP1920 25120 RESIDUE 1 C TIP
2071 TIP1921 25123 RESIDUE 1 C TIP
2072 TIP1922 25126 RESIDUE 1 C TIP
2073 TIP1923 25129 RESIDUE 1 C TIP
2074 TIP1924 25132 RESIDUE 1 C TIP
2075 TIP1925 25135 RESIDUE 1 C TIP
2076 TIP1926 25138 RESIDUE 1 C TIP
2077 TIP1927 25141 RESIDUE 1 C TIP
2078 TIP1928 25144 RESIDUE 1 C TIP
2079 TIP1929 25147 RESIDUE 1 C TIP
2080 TIP1930 25150 RESIDUE 1 C TIP
2081 TIP1931 25153 RESIDUE 1 C TIP
2082 TIP1932 25156 RESIDUE 1 C TIP
2083 TIP1933 25159 RESIDUE 1 C TIP
2084 TIP1934 25162 RESIDUE 1 C TIP
2085 TIP1935 25165 RESIDUE 1 C TIP
2086 TIP1936 25168 RESIDUE 1 C TIP
2087 TIP1937 25171 RESIDUE 1 C TIP
2088 TIP1938 25174 RESIDUE 1 C TIP
2089 TIP1939 25177 RESIDUE 1 C TIP
2090 TIP1940 25180 RESIDUE 1 C TIP
2091 TIP1941 25183 RESIDUE 1 C TIP
2092 TIP1942 25186 RESIDUE 1 C TIP
2093 TIP1943 25189 RESIDUE 1 C TIP
2094 TIP1944 25192 RESIDUE 1 C TIP
2095 TIP1945 25195 RESIDUE 1 C TIP
2096 TIP1946 25198 RESIDUE 1 C TIP
2097 TIP1947 25201 RESIDUE 1 C TIP
2098 TIP1948 25204 RESIDUE 1 C TIP
2099 TIP1949 25207 RESIDUE 1 C TIP
2100 TIP1950 25210 RESIDUE 1 C TIP
2101 TIP1951 25213 RESIDUE 1 C TIP
2102 TIP1952 25216 RESIDUE 1 C TIP
2103 TIP1953 25219 RESIDUE 1 C TIP
2104 TIP1954 25222 RESIDUE 1 C TIP
2105 TIP1955 25225 RESIDUE 1 C TIP
2106 TIP1956 25228 RESIDUE 1 C TIP
2107 TIP1957 25231 RESIDUE 1 C TIP
2108 TIP1958 25234 RESIDUE 1 C TIP
2109 TIP1959 25237 RESIDUE 1 C TIP
2110 TIP1960 25240 RESIDUE 1 C TIP
2111 TIP1961 25243 RESIDUE 1 C TIP
2112 TIP1962 25246 RESIDUE 1 C TIP
2113 TIP1963 25249 RESIDUE 1 C TIP
2114 TIP1964 25252 RESIDUE 1 C TIP
2115 TIP1965 25255 RESIDUE 1 C TIP
2116 TIP1966 25258 RESIDUE 1 C TIP
2117 TIP1967 25261 RESIDUE 1 C TIP
2118 TIP1968 25264 RESIDUE 1 C TIP
2119 TIP1969 25267 RESIDUE 1 C TIP
2120 TIP1970 25270 RESIDUE 1 C TIP
2121 TIP1971 25273 RESIDUE 1 C TIP
2122 TIP1972 25276 RESIDUE 1 C TIP
2123 TIP1973 25279 RESIDUE 1 C TIP
2124 TIP1974 25282 RESIDUE 1 C TIP
2125 TIP1975 25285 RESIDUE 1 C TIP
2126 TIP1976 25288 RESIDUE 1 C TIP
2127 TIP1977 25291 RESIDUE 1 C TIP
2128 TIP1978 25294 RESIDUE 1 C TIP
2129 TIP1979 25297 RESIDUE 1 C TIP
2130 TIP1980 25300 RESIDUE 1 C TIP
2131 TIP1981 25303 RESIDUE 1 C TIP
2132 TIP1982 25306 RESIDUE 1 C TIP
2133 TIP1983 25309 RESIDUE 1 C TIP
2134 TIP1984 25312 RESIDUE 1 C TIP
2135 TIP1985 25315 RESIDUE 1 C TIP
2136 TIP1986 25318 RESIDUE 1 C TIP
2137 TIP1987 25321 RESIDUE 1 C TIP
2138 TIP1988 25324 RESIDUE 1 C TIP
2139 TIP1989 25327 RESIDUE 1 C TIP
2140 TIP1990 25330 RESIDUE 1 C TIP
2141 TIP1991 25333 RESIDUE 1 C TIP
2142 TIP1992 25336 RESIDUE 1 C TIP
2143 TIP1993 25339 RESIDUE 1 C TIP
2144 TIP1994 25342 RESIDUE 1 C TIP
2145 TIP1995 25345 RESIDUE 1 C TIP
2146 TIP1996 25348 RESIDUE 1 C TIP
2147 TIP1997 25351 RESIDUE 1 C TIP
2148 TIP1998 25354 RESIDUE 1 C TIP
2149 TIP1999 25357 RESIDUE 1 C TIP
2150 TIP2000 25360 RESIDUE 1 C TIP
2151 TIP2001 25363 RESIDUE 1 C TIP
2152 TIP2002 25366 RESIDUE 1 C TIP
2153 TIP2003 25369 RESIDUE 1 C TIP
2154 TIP2004 25372 RESIDUE 1 C TIP
2155 TIP2005 25375 RESIDUE 1 C TIP
2156 TIP2006 25378 RESIDUE 1 C TIP
2157 TIP2007 25381 RESIDUE 1 C TIP
2158 TIP2008 25384 RESIDUE 1 C TIP
2159 TIP2009 25387 RESIDUE 1 C TIP
2160 TIP2010 25390 RESIDUE 1 C TIP
2161 TIP2011 25393 RESIDUE 1 C TIP
2162 TIP2012 25396 RESIDUE 1 C TIP
2163 TIP2013 25399 RESIDUE 1 C TIP
2164 TIP2014 25402 RESIDUE 1 C TIP
2165 TIP2015 25405 RESIDUE 1 C TIP
2166 TIP2016 25408 RESIDUE 1 C TIP
2167 TIP2017 25411 RESIDUE 1 C TIP
2168 TIP2018 25414 RESIDUE 1 C TIP
2169 TIP2019 25417 RESIDUE 1 C TIP
2170 TIP2020 25420 RESIDUE 1 C TIP
2171 TIP2021 25423 RESIDUE 1 C TIP
2172 TIP2022 25426 RESIDUE 1 C TIP
2173 TIP2023 25429 RESIDUE 1 C TIP
2174 TIP2024 25432 RESIDUE 1 C TIP
2175 TIP2025 25435 RESIDUE 1 C TIP
2176 TIP2026 25438 RESIDUE 1 C TIP
2177 TIP2027 25441 RESIDUE 1 C TIP
2178 TIP2028 25444 RESIDUE 1 C TIP
2179 TIP2029 25447 RESIDUE 1 C TIP
2180 TIP2030 25450 RESIDUE 1 C TIP
2181 TIP2031 25453 RESIDUE 1 C TIP
2182 TIP2032 25456 RESIDUE 1 C TIP
2183 TIP2033 25459 RESIDUE 1 C TIP
2184 TIP2034 25462 RESIDUE 1 C TIP
2185 TIP2035 25465 RESIDUE 1 C TIP
2186 TIP2036 25468 RESIDUE 1 C TIP
2187 TIP2037 25471 RESIDUE 1 C TIP
2188 TIP2038 25474 RESIDUE 1 C TIP
2189 TIP2039 25477 RESIDUE 1 C TIP
2190 TIP2040 25480 RESIDUE 1 C TIP
2191 TIP2041 25483 RESIDUE 1 C TIP
2192 TIP2042 25486 RESIDUE 1 C TIP
2193 TIP2043 25489 RESIDUE 1 C TIP
2194 TIP2044 25492 RESIDUE 1 C TIP
2195 TIP2045 25495 RESIDUE 1 C TIP
2196 TIP2046 25498 RESIDUE 1 C TIP
2197 TIP2047 25501 RESIDUE 1 C TIP
2198 TIP2048 25504 RESIDUE 1 C TIP
2199 TIP2049 25507 RESIDUE 1 C TIP
2200 TIP2050 25510 RESIDUE 1 C TIP
2201 TIP2051 25513 RESIDUE 1 C TIP
2202 TIP2052 25516 RESIDUE 1 C TIP
2203 TIP2053 25519 RESIDUE 1 C TIP
2204 TIP2054 25522 RESIDUE 1 C TIP
2205 TIP2055 25525 RESIDUE 1 C TIP
2206 TIP2056 25528 RESIDUE 1 C TIP
2207 TIP2057 25531 RESIDUE 1 C TIP
2208 TIP2058 25534 RESIDUE 1 C TIP
2209 TIP2059 25537 RESIDUE 1 C TIP
2210 TIP2060 25540 RESIDUE 1 C TIP
2211 TIP2061 25543 RESIDUE 1 C TIP
2212 TIP2062 25546 RESIDUE 1 C TIP
2213 TIP2063 25549 RESIDUE 1 C TIP
2214 TIP2064 25552 RESIDUE 1 C TIP
2215 TIP2065 25555 RESIDUE 1 C TIP
2216 TIP2066 25558 RESIDUE 1 C TIP
2217 TIP2067 25561 RESIDUE 1 C TIP
2218 TIP2068 25564 RESIDUE 1 C TIP
2219 TIP2069 25567 RESIDUE 1 C TIP
2220 TIP2070 25570 RESIDUE 1 C TIP
2221 TIP2071 25573 RESIDUE 1 C TIP
2222 TIP2072 25576 RESIDUE 1 C TIP
2223 TIP2073 25579 RESIDUE 1 C TIP
2224 TIP2074 25582 RESIDUE 1 C TIP
2225 TIP2075 25585 RESIDUE 1 C TIP
2226 TIP2076 25588 RESIDUE 1 C TIP
2227 TIP2077 25591 RESIDUE 1 C TIP
2228 TIP2078 25594 RESIDUE 1 C TIP
2229 TIP2079 25597 RESIDUE 1 C TIP
2230 TIP2080 25600 RESIDUE 1 C TIP
2231 TIP2081 25603 RESIDUE 1 C TIP
2232 TIP2082 25606 RESIDUE 1 C TIP
2233 TIP2083 25609 RESIDUE 1 C TIP
2234 TIP2084 25612 RESIDUE 1 C TIP
2235 TIP2085 25615 RESIDUE 1 C TIP
2236 TIP2086 25618 RESIDUE 1 C TIP
2237 TIP2087 25621 RESIDUE 1 C TIP
2238 TIP2088 25624 RESIDUE 1 C TIP
2239 TIP2089 25627 RESIDUE 1 C TIP
2240 TIP2090 25630 RESIDUE 1 C TIP
2241 TIP2091 25633 RESIDUE 1 C TIP
2242 TIP2092 25636 RESIDUE 1 C TIP
2243 TIP2093 25639 RESIDUE 1 C TIP
2244 TIP2094 25642 RESIDUE 1 C TIP
2245 TIP2095 25645 RESIDUE 1 C TIP
2246 TIP2096 25648 RESIDUE 1 C TIP
2247 TIP2097 25651 RESIDUE 1 C TIP
2248 TIP2098 25654 RESIDUE 1 C TIP
2249 TIP2099 25657 RESIDUE 1 C TIP
2250 TIP2100 25660 RESIDUE 1 C TIP
2251 TIP2101 25663 RESIDUE 1 C TIP
2252 TIP2102 25666 RESIDUE 1 C TIP
2253 TIP2103 25669 RESIDUE 1 C TIP
2254 TIP2104 25672 RESIDUE 1 C TIP
2255 TIP2105 25675 RESIDUE 1 C TIP
2256 TIP2106 25678 RESIDUE 1 C TIP
2257 TIP2107 25681 RESIDUE 1 C TIP
2258 TIP2108 25684 RESIDUE 1 C TIP
2259 TIP2109 25687 RESIDUE 1 C TIP
2260 TIP2110 25690 RESIDUE 1 C TIP
2261 TIP2111 25693 RESIDUE 1 C TIP
2262 TIP2112 25696 RESIDUE 1 C TIP
2263 TIP2113 25699 RESIDUE 1 C TIP
2264 TIP2114 25702 RESIDUE 1 C TIP
2265 TIP2115 25705 RESIDUE 1 C TIP
2266 TIP2116 25708 RESIDUE 1 C TIP
2267 TIP2117 25711 RESIDUE 1 C TIP
2268 TIP2118 25714 RESIDUE 1 C TIP
2269 TIP2119 25717 RESIDUE 1 C TIP
2270 TIP2120 25720 RESIDUE 1 C TIP
2271 TIP2121 25723 RESIDUE 1 C TIP
2272 TIP2122 25726 RESIDUE 1 C TIP
2273 TIP2123 25729 RESIDUE 1 C TIP
2274 TIP2124 25732 RESIDUE 1 C TIP
2275 TIP2125 25735 RESIDUE 1 C TIP
2276 TIP2126 25738 RESIDUE 1 C TIP
2277 TIP2127 25741 RESIDUE 1 C TIP
2278 TIP2128 25744 RESIDUE 1 C TIP
2279 TIP2129 25747 RESIDUE 1 C TIP
2280 TIP2130 25750 RESIDUE 1 C TIP
2281 TIP2131 25753 RESIDUE 1 C TIP
2282 TIP2132 25756 RESIDUE 1 C TIP
2283 TIP2133 25759 RESIDUE 1 C TIP
2284 TIP2134 25762 RESIDUE 1 C TIP
2285 TIP2135 25765 RESIDUE 1 C TIP
2286 TIP2136 25768 RESIDUE 1 C TIP
2287 TIP2137 25771 RESIDUE 1 C TIP
2288 TIP2138 25774 RESIDUE 1 C TIP
2289 TIP2139 25777 RESIDUE 1 C TIP
2290 TIP2140 25780 RESIDUE 1 C TIP
2291 TIP2141 25783 RESIDUE 1 C TIP
2292 TIP2142 25786 RESIDUE 1 C TIP
2293 TIP2143 25789 RESIDUE 1 C TIP
2294 TIP2144 25792 RESIDUE 1 C TIP
2295 TIP2145 25795 RESIDUE 1 C TIP
2296 TIP2146 25798 RESIDUE 1 C TIP
2297 TIP2147 25801 RESIDUE 1 C TIP
2298 TIP2148 25804 RESIDUE 1 C TIP
2299 TIP2149 25807 RESIDUE 1 C TIP
2300 TIP2150 25810 RESIDUE 1 C TIP
2301 TIP2151 25813 RESIDUE 1 C TIP
2302 TIP2152 25816 RESIDUE 1 C TIP
2303 TIP2153 25819 RESIDUE 1 C TIP
2304 TIP2154 25822 RESIDUE 1 C TIP
2305 TIP2155 25825 RESIDUE 1 C TIP
2306 TIP2156 25828 RESIDUE 1 C TIP
2307 TIP2157 25831 RESIDUE 1 C TIP
2308 TIP2158 25834 RESIDUE 1 C TIP
2309 TIP2159 25837 RESIDUE 1 C TIP
2310 TIP2160 25840 RESIDUE 1 C TIP
2311 TIP2161 25843 RESIDUE 1 C TIP
2312 TIP2162 25846 RESIDUE 1 C TIP
2313 TIP2163 25849 RESIDUE 1 C TIP
2314 TIP2164 25852 RESIDUE 1 C TIP
2315 TIP2165 25855 RESIDUE 1 C TIP
2316 TIP2166 25858 RESIDUE 1 C TIP
2317 TIP2167 25861 RESIDUE 1 C TIP
2318 TIP2168 25864 RESIDUE 1 C TIP
2319 TIP2169 25867 RESIDUE 1 C TIP
2320 TIP2170 25870 RESIDUE 1 C TIP
2321 TIP2171 25873 RESIDUE 1 C TIP
2322 TIP2172 25876 RESIDUE 1 C TIP
2323 TIP2173 25879 RESIDUE 1 C TIP
2324 TIP2174 25882 RESIDUE 1 C TIP
2325 TIP2175 25885 RESIDUE 1 C TIP
2326 TIP2176 25888 RESIDUE 1 C TIP
2327 TIP2177 25891 RESIDUE 1 C TIP
2328 TIP2178 25894 RESIDUE 1 C TIP
2329 TIP2179 25897 RESIDUE 1 C TIP
2330 TIP2180 25900 RESIDUE 1 C TIP
2331 TIP2181 25903 RESIDUE 1 C TIP
2332 TIP2182 25906 RESIDUE 1 C TIP
2333 TIP2183 25909 RESIDUE 1 C TIP
2334 TIP2184 25912 RESIDUE 1 C TIP
2335 TIP2185 25915 RESIDUE 1 C TIP
2336 TIP2186 25918 RESIDUE 1 C TIP
2337 TIP2187 25921 RESIDUE 1 C TIP
2338 TIP2188 25924 RESIDUE 1 C TIP
2339 TIP2189 25927 RESIDUE 1 C TIP
2340 TIP2190 25930 RESIDUE 1 C TIP
2341 TIP2191 25933 RESIDUE 1 C TIP
2342 TIP2192 25936 RESIDUE 1 C TIP
2343 TIP2193 25939 RESIDUE 1 C TIP
2344 TIP2194 25942 RESIDUE 1 C TIP
2345 TIP2195 25945 RESIDUE 1 C TIP
2346 TIP2196 25948 RESIDUE 1 C TIP
2347 TIP2197 25951 RESIDUE 1 C TIP
2348 TIP2198 25954 RESIDUE 1 C TIP
2349 TIP2199 25957 RESIDUE 1 C TIP
2350 TIP2200 25960 RESIDUE 1 C TIP
2351 TIP2201 25963 RESIDUE 1 C TIP
2352 TIP2202 25966 RESIDUE 1 C TIP
2353 TIP2203 25969 RESIDUE 1 C TIP
2354 TIP2204 25972 RESIDUE 1 C TIP
2355 TIP2205 25975 RESIDUE 1 C TIP
2356 TIP2206 25978 RESIDUE 1 C TIP
2357 TIP2207 25981 RESIDUE 1 C TIP
2358 TIP2208 25984 RESIDUE 1 C TIP
2359 TIP2209 25987 RESIDUE 1 C TIP
2360 TIP2210 25990 RESIDUE 1 C TIP
2361 TIP2211 25993 RESIDUE 1 C TIP
2362 TIP2212 25996 RESIDUE 1 C TIP
2363 TIP2213 25999 RESIDUE 1 C TIP
2364 TIP2214 26002 RESIDUE 1 C TIP
2365 TIP2215 26005 RESIDUE 1 C TIP
2366 TIP2216 26008 RESIDUE 1 C TIP
2367 TIP2217 26011 RESIDUE 1 C TIP
2368 TIP2218 26014 RESIDUE 1 C TIP
2369 TIP2219 26017 RESIDUE 1 C TIP
2370 TIP2220 26020 RESIDUE 1 C TIP
2371 TIP2221 26023 RESIDUE 1 C TIP
2372 TIP2222 26026 RESIDUE 1 C TIP
2373 TIP2223 26029 RESIDUE 1 C TIP
2374 TIP2224 26032 RESIDUE 1 C TIP
2375 TIP2225 26035 RESIDUE 1 C TIP
2376 TIP2226 26038 RESIDUE 1 C TIP
2377 TIP2227 26041 RESIDUE 1 C TIP
2378 TIP2228 26044 RESIDUE 1 C TIP
2379 TIP2229 26047 RESIDUE 1 C TIP
2380 TIP2230 26050 RESIDUE 1 C TIP
2381 TIP2231 26053 RESIDUE 1 C TIP
2382 TIP2232 26056 RESIDUE 1 C TIP
2383 TIP2233 26059 RESIDUE 1 C TIP
2384 TIP2234 26062 RESIDUE 1 C TIP
2385 TIP2235 26065 RESIDUE 1 C TIP
2386 TIP2236 26068 RESIDUE 1 C TIP
2387 TIP2237 26071 RESIDUE 1 C TIP
2388 TIP2238 26074 RESIDUE 1 C TIP
2389 TIP2239 26077 RESIDUE 1 C TIP
2390 TIP2240 26080 RESIDUE 1 C TIP
2391 TIP2241 26083 RESIDUE 1 C TIP
2392 TIP2242 26086 RESIDUE 1 C TIP
2393 TIP2243 26089 RESIDUE 1 C TIP
2394 TIP2244 26092 RESIDUE 1 C TIP
2395 TIP2245 26095 RESIDUE 1 C TIP
2396 TIP2246 26098 RESIDUE 1 C TIP
2397 TIP2247 26101 RESIDUE 1 C TIP
2398 TIP2248 26104 RESIDUE 1 C TIP
2399 TIP2249 26107 RESIDUE 1 C TIP
2400 TIP2250 26110 RESIDUE 1 C TIP
2401 TIP2251 26113 RESIDUE 1 C TIP
2402 TIP2252 26116 RESIDUE 1 C TIP
2403 TIP2253 26119 RESIDUE 1 C TIP
2404 TIP2254 26122 RESIDUE 1 C TIP
2405 TIP2255 26125 RESIDUE 1 C TIP
2406 TIP2256 26128 RESIDUE 1 C TIP
2407 TIP2257 26131 RESIDUE 1 C TIP
2408 TIP2258 26134 RESIDUE 1 C TIP
2409 TIP2259 26137 RESIDUE 1 C TIP
2410 TIP2260 26140 RESIDUE 1 C TIP
2411 TIP2261 26143 RESIDUE 1 C TIP
2412 TIP2262 26146 RESIDUE 1 C TIP
2413 TIP2263 26149 RESIDUE 1 C TIP
2414 TIP2264 26152 RESIDUE 1 C TIP
2415 TIP2265 26155 RESIDUE 1 C TIP
2416 TIP2266 26158 RESIDUE 1 C TIP
2417 TIP2267 26161 RESIDUE 1 C TIP
2418 TIP2268 26164 RESIDUE 1 C TIP
2419 TIP2269 26167 RESIDUE 1 C TIP
2420 TIP2270 26170 RESIDUE 1 C TIP
2421 TIP2271 26173 RESIDUE 1 C TIP
2422 TIP2272 26176 RESIDUE 1 C TIP
2423 TIP2273 26179 RESIDUE 1 C TIP
2424 TIP2274 26182 RESIDUE 1 C TIP
2425 TIP2275 26185 RESIDUE 1 C TIP
2426 TIP2276 26188 RESIDUE 1 C TIP
2427 TIP2277 26191 RESIDUE 1 C TIP
2428 TIP2278 26194 RESIDUE 1 C TIP
2429 TIP2279 26197 RESIDUE 1 C TIP
2430 TIP2280 26200 RESIDUE 1 C TIP
2431 TIP2281 26203 RESIDUE 1 C TIP
2432 TIP2282 26206 RESIDUE 1 C TIP
2433 TIP2283 26209 RESIDUE 1 C TIP
2434 TIP2284 26212 RESIDUE 1 C TIP
2435 TIP2285 26215 RESIDUE 1 C TIP
2436 TIP2286 26218 RESIDUE 1 C TIP
2437 TIP2287 26221 RESIDUE 1 C TIP
2438 TIP2288 26224 RESIDUE 1 C TIP
2439 TIP2289 26227 RESIDUE 1 C TIP
2440 TIP2290 26230 RESIDUE 1 C TIP
2441 TIP2291 26233 RESIDUE 1 C TIP
2442 TIP2292 26236 RESIDUE 1 C TIP
2443 TIP2293 26239 RESIDUE 1 C TIP
2444 TIP2294 26242 RESIDUE 1 C TIP
2445 TIP2295 26245 RESIDUE 1 C TIP
2446 TIP2296 26248 RESIDUE 1 C TIP
2447 TIP2297 26251 RESIDUE 1 C TIP
2448 TIP2298 26254 RESIDUE 1 C TIP
2449 TIP2299 26257 RESIDUE 1 C TIP
2450 TIP2300 26260 RESIDUE 1 C TIP
2451 TIP2301 26263 RESIDUE 1 C TIP
2452 TIP2302 26266 RESIDUE 1 C TIP
2453 TIP2303 26269 RESIDUE 1 C TIP
2454 TIP2304 26272 RESIDUE 1 C TIP
2455 TIP2305 26275 RESIDUE 1 C TIP
2456 TIP2306 26278 RESIDUE 1 C TIP
2457 TIP2307 26281 RESIDUE 1 C TIP
2458 TIP2308 26284 RESIDUE 1 C TIP
2459 TIP2309 26287 RESIDUE 1 C TIP
2460 TIP2310 26290 RESIDUE 1 C TIP
2461 TIP2311 26293 RESIDUE 1 C TIP
2462 TIP2312 26296 RESIDUE 1 C TIP
2463 TIP2313 26299 RESIDUE 1 C TIP
2464 TIP2314 26302 RESIDUE 1 C TIP
2465 TIP2315 26305 RESIDUE 1 C TIP
2466 TIP2316 26308 RESIDUE 1 C TIP
2467 TIP2317 26311 RESIDUE 1 C TIP
2468 TIP2318 26314 RESIDUE 1 C TIP
2469 TIP2319 26317 RESIDUE 1 C TIP
2470 TIP2320 26320 RESIDUE 1 C TIP
2471 TIP2321 26323 RESIDUE 1 C TIP
2472 TIP2322 26326 RESIDUE 1 C TIP
2473 TIP2323 26329 RESIDUE 1 C TIP
2474 TIP2324 26332 RESIDUE 1 C TIP
2475 TIP2325 26335 RESIDUE 1 C TIP
2476 TIP2326 26338 RESIDUE 1 C TIP
2477 TIP2327 26341 RESIDUE 1 C TIP
2478 TIP2328 26344 RESIDUE 1 C TIP
2479 TIP2329 26347 RESIDUE 1 C TIP
2480 TIP2330 26350 RESIDUE 1 C TIP
2481 TIP2331 26353 RESIDUE 1 C TIP
2482 TIP2332 26356 RESIDUE 1 C TIP
2483 TIP2333 26359 RESIDUE 1 C TIP
2484 TIP2334 26362 RESIDUE 1 C TIP
2485 TIP2335 26365 RESIDUE 1 C TIP
2486 TIP2336 26368 RESIDUE 1 C TIP
2487 TIP2337 26371 RESIDUE 1 C TIP
2488 TIP2338 26374 RESIDUE 1 C TIP
2489 TIP2339 26377 RESIDUE 1 C TIP
2490 TIP2340 26380 RESIDUE 1 C TIP
2491 TIP2341 26383 RESIDUE 1 C TIP
2492 TIP2342 26386 RESIDUE 1 C TIP
2493 TIP2343 26389 RESIDUE 1 C TIP
2494 TIP2344 26392 RESIDUE 1 C TIP
2495 TIP2345 26395 RESIDUE 1 C TIP
2496 TIP2346 26398 RESIDUE 1 C TIP
2497 TIP2347 26401 RESIDUE 1 C TIP
2498 TIP2348 26404 RESIDUE 1 C TIP
2499 TIP2349 26407 RESIDUE 1 C TIP
2500 TIP2350 26410 RESIDUE 1 C TIP
2501 TIP2351 26413 RESIDUE 1 C TIP
2502 TIP2352 26416 RESIDUE 1 C TIP
2503 TIP2353 26419 RESIDUE 1 C TIP
2504 TIP2354 26422 RESIDUE 1 C TIP
2505 TIP2355 26425 RESIDUE 1 C TIP
2506 TIP2356 26428 RESIDUE 1 C TIP
2507 TIP2357 26431 RESIDUE 1 C TIP
2508 TIP2358 26434 RESIDUE 1 C TIP
2509 TIP2359 26437 RESIDUE 1 C TIP
2510 TIP2360 26440 RESIDUE 1 C TIP
2511 TIP2361 26443 RESIDUE 1 C TIP
2512 TIP2362 26446 RESIDUE 1 C TIP
2513 TIP2363 26449 RESIDUE 1 C TIP
2514 TIP2364 26452 RESIDUE 1 C TIP
2515 TIP2365 26455 RESIDUE 1 C TIP
2516 TIP2366 26458 RESIDUE 1 C TIP
2517 TIP2367 26461 RESIDUE 1 C TIP
2518 TIP2368 26464 RESIDUE 1 C TIP
2519 TIP2369 26467 RESIDUE 1 C TIP
2520 TIP2370 26470 RESIDUE 1 C TIP
2521 TIP2371 26473 RESIDUE 1 C TIP
2522 TIP2372 26476 RESIDUE 1 C TIP
2523 TIP2373 26479 RESIDUE 1 C TIP
2524 TIP2374 26482 RESIDUE 1 C TIP
2525 TIP2375 26485 RESIDUE 1 C TIP
2526 TIP2376 26488 RESIDUE 1 C TIP
2527 TIP2377 26491 RESIDUE 1 C TIP
2528 TIP2378 26494 RESIDUE 1 C TIP
2529 TIP2379 26497 RESIDUE 1 C TIP
2530 TIP2380 26500 RESIDUE 1 C TIP
2531 TIP2381 26503 RESIDUE 1 C TIP
2532 TIP2382 26506 RESIDUE 1 C TIP
2533 TIP2383 26509 RESIDUE 1 C TIP
2534 TIP2384 26512 RESIDUE 1 C TIP
2535 TIP2385 26515 RESIDUE 1 C TIP
2536 TIP2386 26518 RESIDUE 1 C TIP
2537 TIP2387 26521 RESIDUE 1 C TIP
2538 TIP2388 26524 RESIDUE 1 C TIP
2539 TIP2389 26527 RESIDUE 1 C TIP
2540 TIP2390 26530 RESIDUE 1 C TIP
2541 TIP2391 26533 RESIDUE 1 C TIP
2542 TIP2392 26536 RESIDUE 1 C TIP
2543 TIP2393 26539 RESIDUE 1 C TIP
2544 TIP2394 26542 RESIDUE 1 C TIP
2545 TIP2395 26545 RESIDUE 1 C TIP
2546 TIP2396 26548 RESIDUE 1 C TIP
2547 TIP2397 26551 RESIDUE 1 C TIP
2548 TIP2398 26554 RESIDUE 1 C TIP
2549 TIP2399 26557 RESIDUE 1 C TIP
2550 TIP2400 26560 RESIDUE 1 C TIP
2551 TIP2401 26563 RESIDUE 1 C TIP
2552 TIP2402 26566 RESIDUE 1 C TIP
2553 TIP2403 26569 RESIDUE 1 C TIP
2554 TIP2404 26572 RESIDUE 1 C TIP
2555 TIP2405 26575 RESIDUE 1 C TIP
2556 TIP2406 26578 RESIDUE 1 C TIP
2557 TIP2407 26581 RESIDUE 1 C TIP
2558 TIP2408 26584 RESIDUE 1 C TIP
2559 TIP2409 26587 RESIDUE 1 C TIP
2560 TIP2410 26590 RESIDUE 1 C TIP
2561 TIP2411 26593 RESIDUE 1 C TIP
2562 TIP2412 26596 RESIDUE 1 C TIP
2563 TIP2413 26599 RESIDUE 1 C TIP
2564 TIP2414 26602 RESIDUE 1 C TIP
2565 TIP2415 26605 RESIDUE 1 C TIP
2566 TIP2416 26608 RESIDUE 1 C TIP
2567 TIP2417 26611 RESIDUE 1 C TIP
2568 TIP2418 26614 RESIDUE 1 C TIP
2569 TIP2419 26617 RESIDUE 1 C TIP
2570 TIP2420 26620 RESIDUE 1 C TIP
2571 TIP2421 26623 RESIDUE 1 C TIP
2572 TIP2422 26626 RESIDUE 1 C TIP
2573 TIP2423 26629 RESIDUE 1 C TIP
2574 TIP2424 26632 RESIDUE 1 C TIP
2575 TIP2425 26635 RESIDUE 1 C TIP
2576 TIP2426 26638 RESIDUE 1 C TIP
2577 TIP2427 26641 RESIDUE 1 C TIP
2578 TIP2428 26644 RESIDUE 1 C TIP
2579 TIP2429 26647 RESIDUE 1 C TIP
2580 TIP2430 26650 RESIDUE 1 C TIP
2581 TIP2431 26653 RESIDUE 1 C TIP
2582 TIP2432 26656 RESIDUE 1 C TIP
2583 TIP2433 26659 RESIDUE 1 C TIP
2584 TIP2434 26662 RESIDUE 1 C TIP
2585 TIP2435 26665 RESIDUE 1 C TIP
2586 TIP2436 26668 RESIDUE 1 C TIP
2587 TIP2437 26671 RESIDUE 1 C TIP
2588 TIP2438 26674 RESIDUE 1 C TIP
2589 TIP2439 26677 RESIDUE 1 C TIP
2590 TIP2440 26680 RESIDUE 1 C TIP
2591 TIP2441 26683 RESIDUE 1 C TIP
2592 TIP2442 26686 RESIDUE 1 C TIP
2593 TIP2443 26689 RESIDUE 1 C TIP
2594 TIP2444 26692 RESIDUE 1 C TIP
2595 TIP2445 26695 RESIDUE 1 C TIP
2596 TIP2446 26698 RESIDUE 1 C TIP
2597 TIP2447 26701 RESIDUE 1 C TIP
2598 TIP2448 26704 RESIDUE 1 C TIP
2599 TIP2449 26707 RESIDUE 1 C TIP
2600 TIP2450 26710 RESIDUE 1 C TIP
2601 TIP2451 26713 RESIDUE 1 C TIP
2602 TIP2452 26716 RESIDUE 1 C TIP
2603 TIP2453 26719 RESIDUE 1 C TIP
2604 TIP2454 26722 RESIDUE 1 C TIP
2605 TIP2455 26725 RESIDUE 1 C TIP
2606 TIP2456 26728 RESIDUE 1 C TIP
2607 TIP2457 26731 RESIDUE 1 C TIP
2608 TIP2458 26734 RESIDUE 1 C TIP
2609 TIP2459 26737 RESIDUE 1 C TIP
2610 TIP2460 26740 RESIDUE 1 C TIP
2611 TIP2461 26743 RESIDUE 1 C TIP
2612 TIP2462 26746 RESIDUE 1 C TIP
2613 TIP2463 26749 RESIDUE 1 C TIP
2614 TIP2464 26752 RESIDUE 1 C TIP
2615 TIP2465 26755 RESIDUE 1 C TIP
2616 TIP2466 26758 RESIDUE 1 C TIP
2617 TIP2467 26761 RESIDUE 1 C TIP
2618 TIP2468 26764 RESIDUE 1 C TIP
2619 TIP2469 26767 RESIDUE 1 C TIP
2620 TIP2470 26770 RESIDUE 1 C TIP
2621 TIP2471 26773 RESIDUE 1 C TIP
2622 TIP2472 26776 RESIDUE 1 C TIP
2623 TIP2473 26779 RESIDUE 1 C TIP
2624 TIP2474 26782 RESIDUE 1 C TIP
2625 TIP2475 26785 RESIDUE 1 C TIP
2626 TIP2476 26788 RESIDUE 1 C TIP
2627 TIP2477 26791 RESIDUE 1 C TIP
2628 TIP2478 26794 RESIDUE 1 C TIP
2629 TIP2479 26797 RESIDUE 1 C TIP
2630 TIP2480 26800 RESIDUE 1 C TIP
2631 TIP2481 26803 RESIDUE 1 C TIP
2632 TIP2482 26806 RESIDUE 1 C TIP
2633 TIP2483 26809 RESIDUE 1 C TIP
2634 TIP2484 26812 RESIDUE 1 C TIP
2635 TIP2485 26815 RESIDUE 1 C TIP
2636 TIP2486 26818 RESIDUE 1 C TIP
2637 TIP2487 26821 RESIDUE 1 C TIP
2638 TIP2488 26824 RESIDUE 1 C TIP
2639 TIP2489 26827 RESIDUE 1 C TIP
2640 TIP2490 26830 RESIDUE 1 C TIP
2641 TIP2491 26833 RESIDUE 1 C TIP
2642 TIP2492 26836 RESIDUE 1 C TIP
2643 TIP2493 26839 RESIDUE 1 C TIP
2644 TIP2494 26842 RESIDUE 1 C TIP
2645 TIP2495 26845 RESIDUE 1 C TIP
2646 TIP2496 26848 RESIDUE 1 C TIP
2647 TIP2497 26851 RESIDUE 1 C TIP
2648 TIP2498 26854 RESIDUE 1 C TIP
2649 TIP2499 26857 RESIDUE 1 C TIP
2650 TIP2500 26860 RESIDUE 1 C TIP
2651 TIP2501 26863 RESIDUE 1 C TIP
2652 TIP2502 26866 RESIDUE 1 C TIP
2653 TIP2503 26869 RESIDUE 1 C TIP
2654 TIP2504 26872 RESIDUE 1 C TIP
2655 TIP2505 26875 RESIDUE 1 C TIP
2656 TIP2506 26878 RESIDUE 1 C TIP
2657 TIP2507 26881 RESIDUE 1 C TIP
2658 TIP2508 26884 RESIDUE 1 C TIP
2659 TIP2509 26887 RESIDUE 1 C TIP
2660 TIP2510 26890 RESIDUE 1 C TIP
2661 TIP2511 26893 RESIDUE 1 C TIP
2662 TIP2512 26896 RESIDUE 1 C TIP
2663 TIP2513 26899 RESIDUE 1 C TIP
2664 TIP2514 26902 RESIDUE 1 C TIP
2665 TIP2515 26905 RESIDUE 1 C TIP
2666 TIP2516 26908 RESIDUE 1 C TIP
2667 TIP2517 26911 RESIDUE 1 C TIP
2668 TIP2518 26914 RESIDUE 1 C TIP
2669 TIP2519 26917 RESIDUE 1 C TIP
2670 TIP2520 26920 RESIDUE 1 C TIP
2671 TIP2521 26923 RESIDUE 1 C TIP
2672 TIP2522 26926 RESIDUE 1 C TIP
2673 TIP2523 26929 RESIDUE 1 C TIP
2674 TIP2524 26932 RESIDUE 1 C TIP
2675 TIP2525 26935 RESIDUE 1 C TIP
2676 TIP2526 26938 RESIDUE 1 C TIP
2677 TIP2527 26941 RESIDUE 1 C TIP
2678 TIP2528 26944 RESIDUE 1 C TIP
2679 TIP2529 26947 RESIDUE 1 C TIP
2680 TIP2530 26950 RESIDUE 1 C TIP
2681 TIP2531 26953 RESIDUE 1 C TIP
2682 TIP2532 26956 RESIDUE 1 C TIP
2683 TIP2533 26959 RESIDUE 1 C TIP
2684 TIP2534 26962 RESIDUE 1 C TIP
2685 TIP2535 26965 RESIDUE 1 C TIP
2686 TIP2536 26968 RESIDUE 1 C TIP
2687 TIP2537 26971 RESIDUE 1 C TIP
2688 TIP2538 26974 RESIDUE 1 C TIP
2689 TIP2539 26977 RESIDUE 1 C TIP
2690 TIP2540 26980 RESIDUE 1 C TIP
2691 TIP2541 26983 RESIDUE 1 C TIP
2692 TIP2542 26986 RESIDUE 1 C TIP
2693 TIP2543 26989 RESIDUE 1 C TIP
2694 TIP2544 26992 RESIDUE 1 C TIP
2695 TIP2545 26995 RESIDUE 1 C TIP
2696 TIP2546 26998 RESIDUE 1 C TIP
2697 TIP2547 27001 RESIDUE 1 C TIP
2698 TIP2548 27004 RESIDUE 1 C TIP
2699 TIP2549 27007 RESIDUE 1 C TIP
2700 TIP2550 27010 RESIDUE 1 C TIP
2701 TIP2551 27013 RESIDUE 1 C TIP
2702 TIP2552 27016 RESIDUE 1 C TIP
2703 TIP2553 27019 RESIDUE 1 C TIP
2704 TIP2554 27022 RESIDUE 1 C TIP
2705 TIP2555 27025 RESIDUE 1 C TIP
2706 TIP2556 27028 RESIDUE 1 C TIP
2707 TIP2557 27031 RESIDUE 1 C TIP
2708 TIP2558 27034 RESIDUE 1 C TIP
2709 TIP2559 27037 RESIDUE 1 C TIP
2710 TIP2560 27040 RESIDUE 1 C TIP
2711 TIP2561 27043 RESIDUE 1 C TIP
2712 TIP2562 27046 RESIDUE 1 C TIP
2713 TIP2563 27049 RESIDUE 1 C TIP
2714 TIP2564 27052 RESIDUE 1 C TIP
2715 TIP2565 27055 RESIDUE 1 C TIP
2716 TIP2566 27058 RESIDUE 1 C TIP
2717 TIP2567 27061 RESIDUE 1 C TIP
2718 TIP2568 27064 RESIDUE 1 C TIP
2719 TIP2569 27067 RESIDUE 1 C TIP
2720 TIP2570 27070 RESIDUE 1 C TIP
2721 TIP2571 27073 RESIDUE 1 C TIP
2722 TIP2572 27076 RESIDUE 1 C TIP
2723 TIP2573 27079 RESIDUE 1 C TIP
2724 TIP2574 27082 RESIDUE 1 C TIP
2725 TIP2575 27085 RESIDUE 1 C TIP
2726 TIP2576 27088 RESIDUE 1 C TIP
2727 TIP2577 27091 RESIDUE 1 C TIP
2728 TIP2578 27094 RESIDUE 1 C TIP
2729 TIP2579 27097 RESIDUE 1 C TIP
2730 TIP2580 27100 RESIDUE 1 C TIP
2731 TIP2581 27103 RESIDUE 1 C TIP
2732 TIP2582 27106 RESIDUE 1 C TIP
2733 TIP2583 27109 RESIDUE 1 C TIP
2734 TIP2584 27112 RESIDUE 1 C TIP
2735 TIP2585 27115 RESIDUE 1 C TIP
2736 TIP2586 27118 RESIDUE 1 C TIP
2737 TIP2587 27121 RESIDUE 1 C TIP
2738 TIP2588 27124 RESIDUE 1 C TIP
2739 TIP2589 27127 RESIDUE 1 C TIP
2740 TIP2590 27130 RESIDUE 1 C TIP
2741 TIP2591 27133 RESIDUE 1 C TIP
2742 TIP2592 27136 RESIDUE 1 C TIP
2743 TIP2593 27139 RESIDUE 1 C TIP
2744 TIP2594 27142 RESIDUE 1 C TIP
2745 TIP2595 27145 RESIDUE 1 C TIP
2746 TIP2596 27148 RESIDUE 1 C TIP
2747 TIP2597 27151 RESIDUE 1 C TIP
2748 TIP2598 27154 RESIDUE 1 C TIP
2749 TIP2599 27157 RESIDUE 1 C TIP
2750 TIP2600 27160 RESIDUE 1 C TIP
2751 TIP2601 27163 RESIDUE 1 C TIP
2752 TIP2602 27166 RESIDUE 1 C TIP
2753 TIP2603 27169 RESIDUE 1 C TIP
2754 TIP2604 27172 RESIDUE 1 C TIP
2755 TIP2605 27175 RESIDUE 1 C TIP
2756 TIP2606 27178 RESIDUE 1 C TIP
2757 TIP2607 27181 RESIDUE 1 C TIP
2758 TIP2608 27184 RESIDUE 1 C TIP
2759 TIP2609 27187 RESIDUE 1 C TIP
2760 TIP2610 27190 RESIDUE 1 C TIP
2761 TIP2611 27193 RESIDUE 1 C TIP
2762 TIP2612 27196 RESIDUE 1 C TIP
2763 TIP2613 27199 RESIDUE 1 C TIP
2764 TIP2614 27202 RESIDUE 1 C TIP
2765 TIP2615 27205 RESIDUE 1 C TIP
2766 TIP2616 27208 RESIDUE 1 C TIP
2767 TIP2617 27211 RESIDUE 1 C TIP
2768 TIP2618 27214 RESIDUE 1 C TIP
2769 TIP2619 27217 RESIDUE 1 C TIP
2770 TIP2620 27220 RESIDUE 1 C TIP
2771 TIP2621 27223 RESIDUE 1 C TIP
2772 TIP2622 27226 RESIDUE 1 C TIP
2773 TIP2623 27229 RESIDUE 1 C TIP
2774 TIP2624 27232 RESIDUE 1 C TIP
2775 TIP2625 27235 RESIDUE 1 C TIP
2776 TIP2626 27238 RESIDUE 1 C TIP
2777 TIP2627 27241 RESIDUE 1 C TIP
2778 TIP2628 27244 RESIDUE 1 C TIP
2779 TIP2629 27247 RESIDUE 1 C TIP
2780 TIP2630 27250 RESIDUE 1 C TIP
2781 TIP2631 27253 RESIDUE 1 C TIP
2782 TIP2632 27256 RESIDUE 1 C TIP
2783 TIP2633 27259 RESIDUE 1 C TIP
2784 TIP2634 27262 RESIDUE 1 C TIP
2785 TIP2635 27265 RESIDUE 1 C TIP
2786 TIP2636 27268 RESIDUE 1 C TIP
2787 TIP2637 27271 RESIDUE 1 C TIP
2788 TIP2638 27274 RESIDUE 1 C TIP
2789 TIP2639 27277 RESIDUE 1 C TIP
2790 TIP2640 27280 RESIDUE 1 C TIP
2791 TIP2641 27283 RESIDUE 1 C TIP
2792 TIP2642 27286 RESIDUE 1 C TIP
2793 TIP2643 27289 RESIDUE 1 C TIP
2794 TIP2644 27292 RESIDUE 1 C TIP
2795 TIP2645 27295 RESIDUE 1 C TIP
2796 TIP2646 27298 RESIDUE 1 C TIP
2797 TIP2647 27301 RESIDUE 1 C TIP
2798 TIP2648 27304 RESIDUE 1 C TIP
2799 TIP2649 27307 RESIDUE 1 C TIP
2800 TIP2650 27310 RESIDUE 1 C TIP
2801 TIP2651 27313 RESIDUE 1 C TIP
2802 TIP2652 27316 RESIDUE 1 C TIP
2803 TIP2653 27319 RESIDUE 1 C TIP
2804 TIP2654 27322 RESIDUE 1 C TIP
2805 TIP2655 27325 RESIDUE 1 C TIP
2806 TIP2656 27328 RESIDUE 1 C TIP
2807 TIP2657 27331 RESIDUE 1 C TIP
2808 TIP2658 27334 RESIDUE 1 C TIP
2809 TIP2659 27337 RESIDUE 1 C TIP
2810 TIP2660 27340 RESIDUE 1 C TIP
2811 TIP2661 27343 RESIDUE 1 C TIP
2812 TIP2662 27346 RESIDUE 1 C TIP
2813 TIP2663 27349 RESIDUE 1 C TIP
2814 TIP2664 27352 RESIDUE 1 C TIP
2815 TIP2665 27355 RESIDUE 1 C TIP
2816 TIP2666 27358 RESIDUE 1 C TIP
2817 TIP2667 27361 RESIDUE 1 C TIP
2818 TIP2668 27364 RESIDUE 1 C TIP
2819 TIP2669 27367 RESIDUE 1 C TIP
2820 TIP2670 27370 RESIDUE 1 C TIP
2821 TIP2671 27373 RESIDUE 1 C TIP
2822 TIP2672 27376 RESIDUE 1 C TIP
2823 TIP2673 27379 RESIDUE 1 C TIP
2824 TIP2674 27382 RESIDUE 1 C TIP
2825 TIP2675 27385 RESIDUE 1 C TIP
2826 TIP2676 27388 RESIDUE 1 C TIP
2827 TIP2677 27391 RESIDUE 1 C TIP
2828 TIP2678 27394 RESIDUE 1 C TIP
2829 TIP2679 27397 RESIDUE 1 C TIP
2830 TIP2680 27400 RESIDUE 1 C TIP
2831 TIP2681 27403 RESIDUE 1 C TIP
2832 TIP2682 27406 RESIDUE 1 C TIP
2833 TIP2683 27409 RESIDUE 1 C TIP
2834 TIP2684 27412 RESIDUE 1 C TIP
2835 TIP2685 27415 RESIDUE 1 C TIP
2836 TIP2686 27418 RESIDUE 1 C TIP
2837 TIP2687 27421 RESIDUE 1 C TIP
2838 TIP2688 27424 RESIDUE 1 C TIP
2839 TIP2689 27427 RESIDUE 1 C TIP
2840 TIP2690 27430 RESIDUE 1 C TIP
2841 TIP2691 27433 RESIDUE 1 C TIP
2842 TIP2692 27436 RESIDUE 1 C TIP
2843 TIP2693 27439 RESIDUE 1 C TIP
2844 TIP2694 27442 RESIDUE 1 C TIP
2845 TIP2695 27445 RESIDUE 1 C TIP
2846 TIP2696 27448 RESIDUE 1 C TIP
2847 TIP2697 27451 RESIDUE 1 C TIP
2848 TIP2698 27454 RESIDUE 1 C TIP
2849 TIP2699 27457 RESIDUE 1 C TIP
2850 TIP2700 27460 RESIDUE 1 C TIP
2851 TIP2701 27463 RESIDUE 1 C TIP
2852 TIP2702 27466 RESIDUE 1 C TIP
2853 TIP2703 27469 RESIDUE 1 C TIP
2854 TIP2704 27472 RESIDUE 1 C TIP
2855 TIP2705 27475 RESIDUE 1 C TIP
2856 TIP2706 27478 RESIDUE 1 C TIP
2857 TIP2707 27481 RESIDUE 1 C TIP
2858 TIP2708 27484 RESIDUE 1 C TIP
2859 TIP2709 27487 RESIDUE 1 C TIP
2860 TIP2710 27490 RESIDUE 1 C TIP
2861 TIP2711 27493 RESIDUE 1 C TIP
2862 TIP2712 27496 RESIDUE 1 C TIP
2863 TIP2713 27499 RESIDUE 1 C TIP
2864 TIP2714 27502 RESIDUE 1 C TIP
2865 TIP2715 27505 RESIDUE 1 C TIP
2866 TIP2716 27508 RESIDUE 1 C TIP
2867 TIP2717 27511 RESIDUE 1 C TIP
2868 TIP2718 27514 RESIDUE 1 C TIP
2869 TIP2719 27517 RESIDUE 1 C TIP
2870 TIP2720 27520 RESIDUE 1 C TIP
2871 TIP2721 27523 RESIDUE 1 C TIP
2872 TIP2722 27526 RESIDUE 1 C TIP
2873 TIP2723 27529 RESIDUE 1 C TIP
2874 TIP2724 27532 RESIDUE 1 C TIP
2875 TIP2725 27535 RESIDUE 1 C TIP
2876 TIP2726 27538 RESIDUE 1 C TIP
2877 TIP2727 27541 RESIDUE 1 C TIP
2878 TIP2728 27544 RESIDUE 1 C TIP
2879 TIP2729 27547 RESIDUE 1 C TIP
2880 TIP2730 27550 RESIDUE 1 C TIP
2881 TIP2731 27553 RESIDUE 1 C TIP
2882 TIP2732 27556 RESIDUE 1 C TIP
2883 TIP2733 27559 RESIDUE 1 C TIP
2884 TIP2734 27562 RESIDUE 1 C TIP
2885 TIP2735 27565 RESIDUE 1 C TIP
2886 TIP2736 27568 RESIDUE 1 C TIP
2887 TIP2737 27571 RESIDUE 1 C TIP
2888 TIP2738 27574 RESIDUE 1 C TIP
2889 TIP2739 27577 RESIDUE 1 C TIP
2890 TIP2740 27580 RESIDUE 1 C TIP
2891 TIP2741 27583 RESIDUE 1 C TIP
2892 TIP2742 27586 RESIDUE 1 C TIP
2893 TIP2743 27589 RESIDUE 1 C TIP
2894 TIP2744 27592 RESIDUE 1 C TIP
2895 TIP2745 27595 RESIDUE 1 C TIP
2896 TIP2746 27598 RESIDUE 1 C TIP
2897 TIP2747 27601 RESIDUE 1 C TIP
2898 TIP2748 27604 RESIDUE 1 C TIP
2899 TIP2749 27607 RESIDUE 1 C TIP
2900 TIP2750 27610 RESIDUE 1 C TIP
2901 TIP2751 27613 RESIDUE 1 C TIP
2902 TIP2752 27616 RESIDUE 1 C TIP
2903 TIP2753 27619 RESIDUE 1 C TIP
2904 TIP2754 27622 RESIDUE 1 C TIP
2905 TIP2755 27625 RESIDUE 1 C TIP
2906 TIP2756 27628 RESIDUE 1 C TIP
2907 TIP2757 27631 RESIDUE 1 C TIP
2908 TIP2758 27634 RESIDUE 1 C TIP
2909 TIP2759 27637 RESIDUE 1 C TIP
2910 TIP2760 27640 RESIDUE 1 C TIP
2911 TIP2761 27643 RESIDUE 1 C TIP
2912 TIP2762 27646 RESIDUE 1 C TIP
2913 TIP2763 27649 RESIDUE 1 C TIP
2914 TIP2764 27652 RESIDUE 1 C TIP
2915 TIP2765 27655 RESIDUE 1 C TIP
2916 TIP2766 27658 RESIDUE 1 C TIP
2917 TIP2767 27661 RESIDUE 1 C TIP
2918 TIP2768 27664 RESIDUE 1 C TIP
2919 TIP2769 27667 RESIDUE 1 C TIP
2920 TIP2770 27670 RESIDUE 1 C TIP
2921 TIP2771 27673 RESIDUE 1 C TIP
2922 TIP2772 27676 RESIDUE 1 C TIP
2923 TIP2773 27679 RESIDUE 1 C TIP
2924 TIP2774 27682 RESIDUE 1 C TIP
2925 TIP2775 27685 RESIDUE 1 C TIP
2926 TIP2776 27688 RESIDUE 1 C TIP
2927 TIP2777 27691 RESIDUE 1 C TIP
2928 TIP2778 27694 RESIDUE 1 C TIP
2929 TIP2779 27697 RESIDUE 1 C TIP
2930 TIP2780 27700 RESIDUE 1 C TIP
2931 TIP2781 27703 RESIDUE 1 C TIP
2932 TIP2782 27706 RESIDUE 1 C TIP
2933 TIP2783 27709 RESIDUE 1 C TIP
2934 TIP2784 27712 RESIDUE 1 C TIP
2935 TIP2785 27715 RESIDUE 1 C TIP
2936 TIP2786 27718 RESIDUE 1 C TIP
2937 TIP2787 27721 RESIDUE 1 C TIP
2938 TIP2788 27724 RESIDUE 1 C TIP
2939 TIP2789 27727 RESIDUE 1 C TIP
2940 TIP2790 27730 RESIDUE 1 C TIP
2941 TIP2791 27733 RESIDUE 1 C TIP
2942 TIP2792 27736 RESIDUE 1 C TIP
2943 TIP2793 27739 RESIDUE 1 C TIP
2944 TIP2794 27742 RESIDUE 1 C TIP
2945 TIP2795 27745 RESIDUE 1 C TIP
2946 TIP2796 27748 RESIDUE 1 C TIP
2947 TIP2797 27751 RESIDUE 1 C TIP
2948 TIP2798 27754 RESIDUE 1 C TIP
2949 TIP2799 27757 RESIDUE 1 C TIP
2950 TIP2800 27760 RESIDUE 1 C TIP
2951 TIP2801 27763 RESIDUE 1 C TIP
2952 TIP2802 27766 RESIDUE 1 C TIP
2953 TIP2803 27769 RESIDUE 1 C TIP
2954 TIP2804 27772 RESIDUE 1 C TIP
2955 TIP2805 27775 RESIDUE 1 C TIP
2956 TIP2806 27778 RESIDUE 1 C TIP
2957 TIP2807 27781 RESIDUE 1 C TIP
2958 TIP2808 27784 RESIDUE 1 C TIP
2959 TIP2809 27787 RESIDUE 1 C TIP
2960 TIP2810 27790 RESIDUE 1 C TIP
2961 TIP2811 27793 RESIDUE 1 C TIP
2962 TIP2812 27796 RESIDUE 1 C TIP
2963 TIP2813 27799 RESIDUE 1 C TIP
2964 TIP2814 27802 RESIDUE 1 C TIP
2965 TIP2815 27805 RESIDUE 1 C TIP
2966 TIP2816 27808 RESIDUE 1 C TIP
2967 TIP2817 27811 RESIDUE 1 C TIP
2968 TIP2818 27814 RESIDUE 1 C TIP
2969 TIP2819 27817 RESIDUE 1 C TIP
2970 TIP2820 27820 RESIDUE 1 C TIP
2971 TIP2821 27823 RESIDUE 1 C TIP
2972 TIP2822 27826 RESIDUE 1 C TIP
2973 TIP2823 27829 RESIDUE 1 C TIP
2974 TIP2824 27832 RESIDUE 1 C TIP
2975 TIP2825 27835 RESIDUE 1 C TIP
2976 TIP2826 27838 RESIDUE 1 C TIP
2977 TIP2827 27841 RESIDUE 1 C TIP
2978 TIP2828 27844 RESIDUE 1 C TIP
2979 TIP2829 27847 RESIDUE 1 C TIP
2980 TIP2830 27850 RESIDUE 1 C TIP
2981 TIP2831 27853 RESIDUE 1 C TIP
2982 TIP2832 27856 RESIDUE 1 C TIP
2983 TIP2833 27859 RESIDUE 1 C TIP
2984 TIP2834 27862 RESIDUE 1 C TIP
2985 TIP2835 27865 RESIDUE 1 C TIP
2986 TIP2836 27868 RESIDUE 1 C TIP
2987 TIP2837 27871 RESIDUE 1 C TIP
2988 TIP2838 27874 RESIDUE 1 C TIP
2989 TIP2839 27877 RESIDUE 1 C TIP
2990 TIP2840 27880 RESIDUE 1 C TIP
2991 TIP2841 27883 RESIDUE 1 C TIP
2992 TIP2842 27886 RESIDUE 1 C TIP
2993 TIP2843 27889 RESIDUE 1 C TIP
2994 TIP2844 27892 RESIDUE 1 C TIP
2995 TIP2845 27895 RESIDUE 1 C TIP
2996 TIP2846 27898 RESIDUE 1 C TIP
2997 TIP2847 27901 RESIDUE 1 C TIP
2998 TIP2848 27904 RESIDUE 1 C TIP
2999 TIP2849 27907 RESIDUE 1 C TIP
3000 TIP2850 27910 RESIDUE 1 C TIP
3001 TIP2851 27913 RESIDUE 1 C TIP
3002 TIP2852 27916 RESIDUE 1 C TIP
3003 TIP2853 27919 RESIDUE 1 C TIP
3004 TIP2854 27922 RESIDUE 1 C TIP
3005 TIP2855 27925 RESIDUE 1 C TIP
3006 TIP2856 27928 RESIDUE 1 C TIP
3007 TIP2857 27931 RESIDUE 1 C TIP
3008 TIP2858 27934 RESIDUE 1 C TIP
3009 TIP2859 27937 RESIDUE 1 C TIP
3010 TIP2860 27940 RESIDUE 1 C TIP
3011 TIP2861 27943 RESIDUE 1 C TIP
3012 TIP2862 27946 RESIDUE 1 C TIP
3013 TIP2863 27949 RESIDUE 1 C TIP
3014 TIP2864 27952 RESIDUE 1 C TIP
3015 TIP2865 27955 RESIDUE 1 C TIP
3016 TIP2866 27958 RESIDUE 1 C TIP
3017 TIP2867 27961 RESIDUE 1 C TIP
3018 TIP2868 27964 RESIDUE 1 C TIP
3019 TIP2869 27967 RESIDUE 1 C TIP
3020 TIP2870 27970 RESIDUE 1 C TIP
3021 TIP2871 27973 RESIDUE 1 C TIP
3022 TIP2872 27976 RESIDUE 1 C TIP
3023 TIP2873 27979 RESIDUE 1 C TIP
3024 TIP2874 27982 RESIDUE 1 C TIP
3025 TIP2875 27985 RESIDUE 1 C TIP
3026 TIP2876 27988 RESIDUE 1 C TIP
3027 TIP2877 27991 RESIDUE 1 C TIP
3028 TIP2878 27994 RESIDUE 1 C TIP
3029 TIP2879 27997 RESIDUE 1 C TIP
3030 TIP2880 28000 RESIDUE 1 C TIP
3031 TIP2881 28003 RESIDUE 1 C TIP
3032 TIP2882 28006 RESIDUE 1 C TIP
3033 TIP2883 28009 RESIDUE 1 C TIP
3034 TIP2884 28012 RESIDUE 1 C TIP
3035 TIP2885 28015 RESIDUE 1 C TIP
3036 TIP2886 28018 RESIDUE 1 C TIP
3037 TIP2887 28021 RESIDUE 1 C TIP
3038 TIP2888 28024 RESIDUE 1 C TIP
3039 TIP2889 28027 RESIDUE 1 C TIP
3040 TIP2890 28030 RESIDUE 1 C TIP
3041 TIP2891 28033 RESIDUE 1 C TIP
3042 TIP2892 28036 RESIDUE 1 C TIP
3043 TIP2893 28039 RESIDUE 1 C TIP
3044 TIP2894 28042 RESIDUE 1 C TIP
3045 TIP2895 28045 RESIDUE 1 C TIP
3046 TIP2896 28048 RESIDUE 1 C TIP
3047 TIP2897 28051 RESIDUE 1 C TIP
3048 TIP2898 28054 RESIDUE 1 C TIP
3049 TIP2899 28057 RESIDUE 1 C TIP
3050 TIP2900 28060 RESIDUE 1 C TIP
3051 TIP2901 28063 RESIDUE 1 C TIP
3052 TIP2902 28066 RESIDUE 1 C TIP
3053 TIP2903 28069 RESIDUE 1 C TIP
3054 TIP2904 28072 RESIDUE 1 C TIP
3055 TIP2905 28075 RESIDUE 1 C TIP
3056 TIP2906 28078 RESIDUE 1 C TIP
3057 TIP2907 28081 RESIDUE 1 C TIP
3058 TIP2908 28084 RESIDUE 1 C TIP
3059 TIP2909 28087 RESIDUE 1 C TIP
3060 TIP2910 28090 RESIDUE 1 C TIP
3061 TIP2911 28093 RESIDUE 1 C TIP
3062 TIP2912 28096 RESIDUE 1 C TIP
3063 TIP2913 28099 RESIDUE 1 C TIP
3064 TIP2914 28102 RESIDUE 1 C TIP
3065 TIP2915 28105 RESIDUE 1 C TIP
3066 TIP2916 28108 RESIDUE 1 C TIP
3067 TIP2917 28111 RESIDUE 1 C TIP
3068 TIP2918 28114 RESIDUE 1 C TIP
3069 TIP2919 28117 RESIDUE 1 C TIP
3070 TIP2920 28120 RESIDUE 1 C TIP
3071 TIP2921 28123 RESIDUE 1 C TIP
3072 TIP2922 28126 RESIDUE 1 C TIP
3073 TIP2923 28129 RESIDUE 1 C TIP
3074 TIP2924 28132 RESIDUE 1 C TIP
3075 TIP2925 28135 RESIDUE 1 C TIP
3076 TIP2926 28138 RESIDUE 1 C TIP
3077 TIP2927 28141 RESIDUE 1 C TIP
3078 TIP2928 28144 RESIDUE 1 C TIP
3079 TIP2929 28147 RESIDUE 1 C TIP
3080 TIP2930 28150 RESIDUE 1 C TIP
3081 TIP2931 28153 RESIDUE 1 C TIP
3082 TIP2932 28156 RESIDUE 1 C TIP
3083 TIP2933 28159 RESIDUE 1 C TIP
3084 TIP2934 28162 RESIDUE 1 C TIP
3085 TIP2935 28165 RESIDUE 1 C TIP
3086 TIP2936 28168 RESIDUE 1 C TIP
3087 TIP2937 28171 RESIDUE 1 C TIP
3088 TIP2938 28174 RESIDUE 1 C TIP
3089 TIP2939 28177 RESIDUE 1 C TIP
3090 TIP2940 28180 RESIDUE 1 C TIP
3091 TIP2941 28183 RESIDUE 1 C TIP
3092 TIP2942 28186 RESIDUE 1 C TIP
3093 TIP2943 28189 RESIDUE 1 C TIP
3094 TIP2944 28192 RESIDUE 1 C TIP
3095 TIP2945 28195 RESIDUE 1 C TIP
3096 TIP2946 28198 RESIDUE 1 C TIP
3097 TIP2947 28201 RESIDUE 1 C TIP
3098 TIP2948 28204 RESIDUE 1 C TIP
3099 TIP2949 28207 RESIDUE 1 C TIP
3100 TIP2950 28210 RESIDUE 1 C TIP
3101 TIP2951 28213 RESIDUE 1 C TIP
3102 TIP2952 28216 RESIDUE 1 C TIP
3103 TIP2953 28219 RESIDUE 1 C TIP
3104 TIP2954 28222 RESIDUE 1 C TIP
3105 TIP2955 28225 RESIDUE 1 C TIP
3106 TIP2956 28228 RESIDUE 1 C TIP
3107 TIP2957 28231 RESIDUE 1 C TIP
3108 TIP2958 28234 RESIDUE 1 C TIP
3109 TIP2959 28237 RESIDUE 1 C TIP
3110 TIP2960 28240 RESIDUE 1 C TIP
3111 TIP2961 28243 RESIDUE 1 C TIP
3112 TIP2962 28246 RESIDUE 1 C TIP
3113 TIP2963 28249 RESIDUE 1 C TIP
3114 TIP2964 28252 RESIDUE 1 C TIP
3115 TIP2965 28255 RESIDUE 1 C TIP
3116 TIP2966 28258 RESIDUE 1 C TIP
3117 TIP2967 28261 RESIDUE 1 C TIP
3118 TIP2968 28264 RESIDUE 1 C TIP
3119 TIP2969 28267 RESIDUE 1 C TIP
3120 TIP2970 28270 RESIDUE 1 C TIP
3121 TIP2971 28273 RESIDUE 1 C TIP
3122 TIP2972 28276 RESIDUE 1 C TIP
3123 TIP2973 28279 RESIDUE 1 C TIP
3124 TIP2974 28282 RESIDUE 1 C TIP
3125 TIP2975 28285 RESIDUE 1 C TIP
3126 TIP2976 28288 RESIDUE 1 C TIP
3127 TIP2977 28291 RESIDUE 1 C TIP
3128 TIP2978 28294 RESIDUE 1 C TIP
3129 TIP2979 28297 RESIDUE 1 C TIP
3130 TIP2980 28300 RESIDUE 1 C TIP
3131 TIP2981 28303 RESIDUE 1 C TIP
3132 TIP2982 28306 RESIDUE 1 C TIP
3133 TIP2983 28309 RESIDUE 1 C TIP
3134 TIP2984 28312 RESIDUE 1 C TIP
3135 TIP2985 28315 RESIDUE 1 C TIP
3136 TIP2986 28318 RESIDUE 1 C TIP
3137 TIP2987 28321 RESIDUE 1 C TIP
3138 TIP2988 28324 RESIDUE 1 C TIP
3139 TIP2989 28327 RESIDUE 1 C TIP
3140 TIP2990 28330 RESIDUE 1 C TIP
3141 TIP2991 28333 RESIDUE 1 C TIP
3142 TIP2992 28336 RESIDUE 1 C TIP
3143 TIP2993 28339 RESIDUE 1 C TIP
3144 TIP2994 28342 RESIDUE 1 C TIP
3145 TIP2995 28345 RESIDUE 1 C TIP
3146 TIP2996 28348 RESIDUE 1 C TIP
3147 TIP2997 28351 RESIDUE 1 C TIP
3148 TIP2998 28354 RESIDUE 1 C TIP
3149 TIP2999 28357 RESIDUE 1 C TIP
3150 TIP3000 28360 RESIDUE 1 C TIP
3151 TIP3001 28363 RESIDUE 1 C TIP
3152 TIP3002 28366 RESIDUE 1 C TIP
3153 TIP3003 28369 RESIDUE 1 C TIP
3154 TIP3004 28372 RESIDUE 1 C TIP
3155 TIP3005 28375 RESIDUE 1 C TIP
3156 TIP3006 28378 RESIDUE 1 C TIP
3157 TIP3007 28381 RESIDUE 1 C TIP
3158 TIP3008 28384 RESIDUE 1 C TIP
3159 TIP3009 28387 RESIDUE 1 C TIP
3160 TIP3010 28390 RESIDUE 1 C TIP
3161 TIP3011 28393 RESIDUE 1 C TIP
3162 TIP3012 28396 RESIDUE 1 C TIP
3163 TIP3013 28399 RESIDUE 1 C TIP
3164 TIP3014 28402 RESIDUE 1 C TIP
3165 TIP3015 28405 RESIDUE 1 C TIP
3166 TIP3016 28408 RESIDUE 1 C TIP
3167 TIP3017 28411 RESIDUE 1 C TIP
3168 TIP3018 28414 RESIDUE 1 C TIP
3169 TIP3019 28417 RESIDUE 1 C TIP
3170 TIP3020 28420 RESIDUE 1 C TIP
3171 TIP3021 28423 RESIDUE 1 C TIP
3172 TIP3022 28426 RESIDUE 1 C TIP
3173 TIP3023 28429 RESIDUE 1 C TIP
3174 TIP3024 28432 RESIDUE 1 C TIP
3175 TIP3025 28435 RESIDUE 1 C TIP
3176 TIP3026 28438 RESIDUE 1 C TIP
3177 TIP3027 28441 RESIDUE 1 C TIP
3178 TIP3028 28444 RESIDUE 1 C TIP
3179 TIP3029 28447 RESIDUE 1 C TIP
3180 TIP3030 28450 RESIDUE 1 C TIP
3181 TIP3031 28453 RESIDUE 1 C TIP
3182 TIP3032 28456 RESIDUE 1 C TIP
3183 TIP3033 28459 RESIDUE 1 C TIP
3184 TIP3034 28462 RESIDUE 1 C TIP
3185 TIP3035 28465 RESIDUE 1 C TIP
3186 TIP3036 28468 RESIDUE 1 C TIP
3187 TIP3037 28471 RESIDUE 1 C TIP
3188 TIP3038 28474 RESIDUE 1 C TIP
3189 TIP3039 28477 RESIDUE 1 C TIP
3190 TIP3040 28480 RESIDUE 1 C TIP
3191 TIP3041 28483 RESIDUE 1 C TIP
3192 TIP3042 28486 RESIDUE 1 C TIP
3193 TIP3043 28489 RESIDUE 1 C TIP
3194 TIP3044 28492 RESIDUE 1 C TIP
3195 TIP3045 28495 RESIDUE 1 C TIP
3196 TIP3046 28498 RESIDUE 1 C TIP
3197 TIP3047 28501 RESIDUE 1 C TIP
3198 TIP3048 28504 RESIDUE 1 C TIP
3199 TIP3049 28507 RESIDUE 1 C TIP
3200 TIP3050 28510 RESIDUE 1 C TIP
3201 TIP3051 28513 RESIDUE 1 C TIP
3202 TIP3052 28516 RESIDUE 1 C TIP
3203 TIP3053 28519 RESIDUE 1 C TIP
3204 TIP3054 28522 RESIDUE 1 C TIP
3205 TIP3055 28525 RESIDUE 1 C TIP
3206 TIP3056 28528 RESIDUE 1 C TIP
3207 TIP3057 28531 RESIDUE 1 C TIP
3208 TIP3058 28534 RESIDUE 1 C TIP
3209 TIP3059 28537 RESIDUE 1 C TIP
3210 TIP3060 28540 RESIDUE 1 C TIP
3211 TIP3061 28543 RESIDUE 1 C TIP
3212 TIP3062 28546 RESIDUE 1 C TIP
3213 TIP3063 28549 RESIDUE 1 C TIP
3214 TIP3064 28552 RESIDUE 1 C TIP
3215 TIP3065 28555 RESIDUE 1 C TIP
3216 TIP3066 28558 RESIDUE 1 C TIP
3217 TIP3067 28561 RESIDUE 1 C TIP
3218 TIP3068 28564 RESIDUE 1 C TIP
3219 TIP3069 28567 RESIDUE 1 C TIP
3220 TIP3070 28570 RESIDUE 1 C TIP
3221 TIP3071 28573 RESIDUE 1 C TIP
3222 TIP3072 28576 RESIDUE 1 C TIP
3223 TIP3073 28579 RESIDUE 1 C TIP
3224 TIP3074 28582 RESIDUE 1 C TIP
3225 TIP3075 28585 RESIDUE 1 C TIP
3226 TIP3076 28588 RESIDUE 1 C TIP
3227 TIP3077 28591 RESIDUE 1 C TIP
3228 TIP3078 28594 RESIDUE 1 C TIP
3229 TIP3079 28597 RESIDUE 1 C TIP
3230 TIP3080 28600 RESIDUE 1 C TIP
3231 TIP3081 28603 RESIDUE 1 C TIP
3232 TIP3082 28606 RESIDUE 1 C TIP
3233 TIP3083 28609 RESIDUE 1 C TIP
3234 TIP3084 28612 RESIDUE 1 C TIP
3235 TIP3085 28615 RESIDUE 1 C TIP
3236 TIP3086 28618 RESIDUE 1 C TIP
3237 TIP3087 28621 RESIDUE 1 C TIP
3238 TIP3088 28624 RESIDUE 1 C TIP
3239 TIP3089 28627 RESIDUE 1 C TIP
3240 TIP3090 28630 RESIDUE 1 C TIP
3241 TIP3091 28633 RESIDUE 1 C TIP
3242 TIP3092 28636 RESIDUE 1 C TIP
3243 TIP3093 28639 RESIDUE 1 C TIP
3244 TIP3094 28642 RESIDUE 1 C TIP
3245 TIP3095 28645 RESIDUE 1 C TIP
3246 TIP3096 28648 RESIDUE 1 C TIP
3247 TIP3097 28651 RESIDUE 1 C TIP
3248 TIP3098 28654 RESIDUE 1 C TIP
3249 TIP3099 28657 RESIDUE 1 C TIP
3250 TIP3100 28660 RESIDUE 1 C TIP
3251 TIP3101 28663 RESIDUE 1 C TIP
3252 TIP3102 28666 RESIDUE 1 C TIP
3253 TIP3103 28669 RESIDUE 1 C TIP
3254 TIP3104 28672 RESIDUE 1 C TIP
3255 TIP3105 28675 RESIDUE 1 C TIP
3256 TIP3106 28678 RESIDUE 1 C TIP
3257 TIP3107 28681 RESIDUE 1 C TIP
3258 TIP3108 28684 RESIDUE 1 C TIP
3259 TIP3109 28687 RESIDUE 1 C TIP
3260 TIP3110 28690 RESIDUE 1 C TIP
3261 TIP3111 28693 RESIDUE 1 C TIP
3262 TIP3112 28696 RESIDUE 1 C TIP
3263 TIP3113 28699 RESIDUE 1 C TIP
3264 TIP3114 28702 RESIDUE 1 C TIP
3265 TIP3115 28705 RESIDUE 1 C TIP
3266 TIP3116 28708 RESIDUE 1 C TIP
3267 TIP3117 28711 RESIDUE 1 C TIP
3268 TIP3118 28714 RESIDUE 1 C TIP
3269 TIP3119 28717 RESIDUE 1 C TIP
3270 TIP3120 28720 RESIDUE 1 C TIP
3271 TIP3121 28723 RESIDUE 1 C TIP
3272 TIP3122 28726 RESIDUE 1 C TIP
3273 TIP3123 28729 RESIDUE 1 C TIP
3274 TIP3124 28732 RESIDUE 1 C TIP
3275 TIP3125 28735 RESIDUE 1 C TIP
3276 TIP3126 28738 RESIDUE 1 C TIP
3277 TIP3127 28741 RESIDUE 1 C TIP
3278 TIP3128 28744 RESIDUE 1 C TIP
3279 TIP3129 28747 RESIDUE 1 C TIP
3280 TIP3130 28750 RESIDUE 1 C TIP
3281 TIP3131 28753 RESIDUE 1 C TIP
3282 TIP3132 28756 RESIDUE 1 C TIP
3283 TIP3133 28759 RESIDUE 1 C TIP
3284 TIP3134 28762 RESIDUE 1 C TIP
3285 TIP3135 28765 RESIDUE 1 C TIP
3286 TIP3136 28768 RESIDUE 1 C TIP
3287 TIP3137 28771 RESIDUE 1 C TIP
3288 TIP3138 28774 RESIDUE 1 C TIP
3289 TIP3139 28777 RESIDUE 1 C TIP
3290 TIP3140 28780 RESIDUE 1 C TIP
3291 TIP3141 28783 RESIDUE 1 C TIP
3292 TIP3142 28786 RESIDUE 1 C TIP
3293 TIP3143 28789 RESIDUE 1 C TIP
3294 TIP3144 28792 RESIDUE 1 C TIP
3295 TIP3145 28795 RESIDUE 1 C TIP
3296 TIP3146 28798 RESIDUE 1 C TIP
3297 TIP3147 28801 RESIDUE 1 C TIP
3298 TIP3148 28804 RESIDUE 1 C TIP
3299 TIP3149 28807 RESIDUE 1 C TIP
3300 TIP3150 28810 RESIDUE 1 C TIP
3301 TIP3151 28813 RESIDUE 1 C TIP
3302 TIP3152 28816 RESIDUE 1 C TIP
3303 TIP3153 28819 RESIDUE 1 C TIP
3304 TIP3154 28822 RESIDUE 1 C TIP
3305 TIP3155 28825 RESIDUE 1 C TIP
3306 TIP3156 28828 RESIDUE 1 C TIP
3307 TIP3157 28831 RESIDUE 1 C TIP
3308 TIP3158 28834 RESIDUE 1 C TIP
3309 TIP3159 28837 RESIDUE 1 C TIP
3310 TIP3160 28840 RESIDUE 1 C TIP
3311 TIP3161 28843 RESIDUE 1 C TIP
3312 TIP3162 28846 RESIDUE 1 C TIP
3313 TIP3163 28849 RESIDUE 1 C TIP
3314 TIP3164 28852 RESIDUE 1 C TIP
3315 TIP3165 28855 RESIDUE 1 C TIP
3316 TIP3166 28858 RESIDUE 1 C TIP
3317 TIP3167 28861 RESIDUE 1 C TIP
3318 TIP3168 28864 RESIDUE 1 C TIP
3319 TIP3169 28867 RESIDUE 1 C TIP
3320 TIP3170 28870 RESIDUE 1 C TIP
3321 TIP3171 28873 RESIDUE 1 C TIP
3322 TIP3172 28876 RESIDUE 1 C TIP
3323 TIP3173 28879 RESIDUE 1 C TIP
3324 TIP3174 28882 RESIDUE 1 C TIP
3325 TIP3175 28885 RESIDUE 1 C TIP
3326 TIP3176 28888 RESIDUE 1 C TIP
3327 TIP3177 28891 RESIDUE 1 C TIP
3328 TIP3178 28894 RESIDUE 1 C TIP
3329 TIP3179 28897 RESIDUE 1 C TIP
3330 TIP3180 28900 RESIDUE 1 C TIP
3331 TIP3181 28903 RESIDUE 1 C TIP
3332 TIP3182 28906 RESIDUE 1 C TIP
3333 TIP3183 28909 RESIDUE 1 C TIP
3334 TIP3184 28912 RESIDUE 1 C TIP
3335 TIP3185 28915 RESIDUE 1 C TIP
3336 TIP3186 28918 RESIDUE 1 C TIP
3337 TIP3187 28921 RESIDUE 1 C TIP
3338 TIP3188 28924 RESIDUE 1 C TIP
3339 TIP3189 28927 RESIDUE 1 C TIP
3340 TIP3190 28930 RESIDUE 1 C TIP
3341 TIP3191 28933 RESIDUE 1 C TIP
3342 TIP3192 28936 RESIDUE 1 C TIP
3343 TIP3193 28939 RESIDUE 1 C TIP
3344 TIP3194 28942 RESIDUE 1 C TIP
3345 TIP3195 28945 RESIDUE 1 C TIP
3346 TIP3196 28948 RESIDUE 1 C TIP
3347 TIP3197 28951 RESIDUE 1 C TIP
3348 TIP3198 28954 RESIDUE 1 C TIP
3349 TIP3199 28957 RESIDUE 1 C TIP
3350 TIP3200 28960 RESIDUE 1 C TIP
3351 TIP3201 28963 RESIDUE 1 C TIP
3352 TIP3202 28966 RESIDUE 1 C TIP
3353 TIP3203 28969 RESIDUE 1 C TIP
3354 TIP3204 28972 RESIDUE 1 C TIP
3355 TIP3205 28975 RESIDUE 1 C TIP
3356 TIP3206 28978 RESIDUE 1 C TIP
3357 TIP3207 28981 RESIDUE 1 C TIP
3358 TIP3208 28984 RESIDUE 1 C TIP
3359 TIP3209 28987 RESIDUE 1 C TIP
3360 TIP3210 28990 RESIDUE 1 C TIP
3361 TIP3211 28993 RESIDUE 1 C TIP
3362 TIP3212 28996 RESIDUE 1 C TIP
3363 TIP3213 28999 RESIDUE 1 C TIP
3364 TIP3214 29002 RESIDUE 1 C TIP
3365 TIP3215 29005 RESIDUE 1 C TIP
3366 TIP3216 29008 RESIDUE 1 C TIP
3367 TIP3217 29011 RESIDUE 1 C TIP
3368 TIP3218 29014 RESIDUE 1 C TIP
3369 TIP3219 29017 RESIDUE 1 C TIP
3370 TIP3220 29020 RESIDUE 1 C TIP
3371 TIP3221 29023 RESIDUE 1 C TIP
3372 TIP3222 29026 RESIDUE 1 C TIP
3373 TIP3223 29029 RESIDUE 1 C TIP
3374 TIP3224 29032 RESIDUE 1 C TIP
3375 TIP3225 29035 RESIDUE 1 C TIP
3376 TIP3226 29038 RESIDUE 1 C TIP
3377 TIP3227 29041 RESIDUE 1 C TIP
3378 TIP3228 29044 RESIDUE 1 C TIP
3379 TIP3229 29047 RESIDUE 1 C TIP
3380 TIP3230 29050 RESIDUE 1 C TIP
3381 TIP3231 29053 RESIDUE 1 C TIP
3382 TIP3232 29056 RESIDUE 1 C TIP
3383 TIP3233 29059 RESIDUE 1 C TIP
3384 TIP3234 29062 RESIDUE 1 C TIP
3385 TIP3235 29065 RESIDUE 1 C TIP
3386 TIP3236 29068 RESIDUE 1 C TIP
3387 TIP3237 29071 RESIDUE 1 C TIP
3388 TIP3238 29074 RESIDUE 1 C TIP
3389 TIP3239 29077 RESIDUE 1 C TIP
3390 TIP3240 29080 RESIDUE 1 C TIP
3391 TIP3241 29083 RESIDUE 1 C TIP
3392 TIP3242 29086 RESIDUE 1 C TIP
3393 TIP3243 29089 RESIDUE 1 C TIP
3394 TIP3244 29092 RESIDUE 1 C TIP
3395 TIP3245 29095 RESIDUE 1 C TIP
3396 TIP3246 29098 RESIDUE 1 C TIP
3397 TIP3247 29101 RESIDUE 1 C TIP
3398 TIP3248 29104 RESIDUE 1 C TIP
3399 TIP3249 29107 RESIDUE 1 C TIP
3400 TIP3250 29110 RESIDUE 1 C TIP
3401 TIP3251 29113 RESIDUE 1 C TIP
3402 TIP3252 29116 RESIDUE 1 C TIP
3403 TIP3253 29119 RESIDUE 1 C TIP
3404 TIP3254 29122 RESIDUE 1 C TIP
3405 TIP3255 29125 RESIDUE 1 C TIP
3406 TIP3256 29128 RESIDUE 1 C TIP
3407 TIP3257 29131 RESIDUE 1 C TIP
3408 TIP3258 29134 RESIDUE 1 C TIP
3409 TIP3259 29137 RESIDUE 1 C TIP
3410 TIP3260 29140 RESIDUE 1 C TIP
3411 TIP3261 29143 RESIDUE 1 C TIP
3412 TIP3262 29146 RESIDUE 1 C TIP
3413 TIP3263 29149 RESIDUE 1 C TIP
3414 TIP3264 29152 RESIDUE 1 C TIP
3415 TIP3265 29155 RESIDUE 1 C TIP
3416 TIP3266 29158 RESIDUE 1 C TIP
3417 TIP3267 29161 RESIDUE 1 C TIP
3418 TIP3268 29164 RESIDUE 1 C TIP
3419 TIP3269 29167 RESIDUE 1 C TIP
3420 TIP3270 29170 RESIDUE 1 C TIP
3421 TIP3271 29173 RESIDUE 1 C TIP
3422 TIP3272 29176 RESIDUE 1 C TIP
3423 TIP3273 29179 RESIDUE 1 C TIP
3424 TIP3274 29182 RESIDUE 1 C TIP
3425 TIP3275 29185 RESIDUE 1 C TIP
3426 TIP3276 29188 RESIDUE 1 C TIP
3427 TIP3277 29191 RESIDUE 1 C TIP
3428 TIP3278 29194 RESIDUE 1 C TIP
3429 TIP3279 29197 RESIDUE 1 C TIP
3430 TIP3280 29200 RESIDUE 1 C TIP
3431 TIP3281 29203 RESIDUE 1 C TIP
3432 TIP3282 29206 RESIDUE 1 C TIP
3433 TIP3283 29209 RESIDUE 1 C TIP
3434 TIP3284 29212 RESIDUE 1 C TIP
3435 TIP3285 29215 RESIDUE 1 C TIP
3436 TIP3286 29218 RESIDUE 1 C TIP
3437 TIP3287 29221 RESIDUE 1 C TIP
3438 TIP3288 29224 RESIDUE 1 C TIP
3439 TIP3289 29227 RESIDUE 1 C TIP
3440 TIP3290 29230 RESIDUE 1 C TIP
3441 TIP3291 29233 RESIDUE 1 C TIP
3442 TIP3292 29236 RESIDUE 1 C TIP
3443 TIP3293 29239 RESIDUE 1 C TIP
3444 TIP3294 29242 RESIDUE 1 C TIP
3445 TIP3295 29245 RESIDUE 1 C TIP
3446 TIP3296 29248 RESIDUE 1 C TIP
3447 TIP3297 29251 RESIDUE 1 C TIP
3448 TIP3298 29254 RESIDUE 1 C TIP
3449 TIP3299 29257 RESIDUE 1 C TIP
3450 TIP3300 29260 RESIDUE 1 C TIP
3451 TIP3301 29263 RESIDUE 1 C TIP
3452 TIP3302 29266 RESIDUE 1 C TIP
3453 TIP3303 29269 RESIDUE 1 C TIP
3454 TIP3304 29272 RESIDUE 1 C TIP
3455 TIP3305 29275 RESIDUE 1 C TIP
3456 TIP3306 29278 RESIDUE 1 C TIP
3457 TIP3307 29281 RESIDUE 1 C TIP
3458 TIP3308 29284 RESIDUE 1 C TIP
3459 TIP3309 29287 RESIDUE 1 C TIP
3460 TIP3310 29290 RESIDUE 1 C TIP
3461 TIP3311 29293 RESIDUE 1 C TIP
3462 TIP3312 29296 RESIDUE 1 C TIP
3463 TIP3313 29299 RESIDUE 1 C TIP
3464 TIP3314 29302 RESIDUE 1 C TIP
3465 TIP3315 29305 RESIDUE 1 C TIP
3466 TIP3316 29308 RESIDUE 1 C TIP
3467 TIP3317 29311 RESIDUE 1 C TIP
3468 TIP3318 29314 RESIDUE 1 C TIP
3469 TIP3319 29317 RESIDUE 1 C TIP
3470 TIP3320 29320 RESIDUE 1 C TIP
3471 TIP3321 29323 RESIDUE 1 C TIP
3472 TIP3322 29326 RESIDUE 1 C TIP
3473 TIP3323 29329 RESIDUE 1 C TIP
3474 TIP3324 29332 RESIDUE 1 C TIP
3475 TIP3325 29335 RESIDUE 1 C TIP
3476 TIP3326 29338 RESIDUE 1 C TIP
3477 TIP3327 29341 RESIDUE 1 C TIP
3478 TIP3328 29344 RESIDUE 1 C TIP
3479 TIP3329 29347 RESIDUE 1 C TIP
3480 TIP3330 29350 RESIDUE 1 C TIP
3481 TIP3331 29353 RESIDUE 1 C TIP
3482 TIP3332 29356 RESIDUE 1 C TIP
3483 TIP3333 29359 RESIDUE 1 C TIP
3484 TIP3334 29362 RESIDUE 1 C TIP
3485 TIP3335 29365 RESIDUE 1 C TIP
3486 TIP3336 29368 RESIDUE 1 C TIP
3487 TIP3337 29371 RESIDUE 1 C TIP
3488 TIP3338 29374 RESIDUE 1 C TIP
3489 TIP3339 29377 RESIDUE 1 C TIP
3490 TIP3340 29380 RESIDUE 1 C TIP
3491 TIP3341 29383 RESIDUE 1 C TIP
3492 TIP3342 29386 RESIDUE 1 C TIP
3493 TIP3343 29389 RESIDUE 1 C TIP
3494 TIP3344 29392 RESIDUE 1 C TIP
3495 TIP3345 29395 RESIDUE 1 C TIP
3496 TIP3346 29398 RESIDUE 1 C TIP
3497 TIP3347 29401 RESIDUE 1 C TIP
3498 TIP3348 29404 RESIDUE 1 C TIP
3499 TIP3349 29407 RESIDUE 1 C TIP
3500 TIP3350 29410 RESIDUE 1 C TIP
3501 TIP3351 29413 RESIDUE 1 C TIP
3502 TIP3352 29416 RESIDUE 1 C TIP
3503 TIP3353 29419 RESIDUE 1 C TIP
3504 TIP3354 29422 RESIDUE 1 C TIP
3505 TIP3355 29425 RESIDUE 1 C TIP
3506 TIP3356 29428 RESIDUE 1 C TIP
3507 TIP3357 29431 RESIDUE 1 C TIP
3508 TIP3358 29434 RESIDUE 1 C TIP
3509 TIP3359 29437 RESIDUE 1 C TIP
3510 TIP3360 29440 RESIDUE 1 C TIP
3511 TIP3361 29443 RESIDUE 1 C TIP
3512 TIP3362 29446 RESIDUE 1 C TIP
3513 TIP3363 29449 RESIDUE 1 C TIP
3514 TIP3364 29452 RESIDUE 1 C TIP
3515 TIP3365 29455 RESIDUE 1 C TIP
3516 TIP3366 29458 RESIDUE 1 C TIP
3517 TIP3367 29461 RESIDUE 1 C TIP
3518 TIP3368 29464 RESIDUE 1 C TIP
3519 TIP3369 29467 RESIDUE 1 C TIP
3520 TIP3370 29470 RESIDUE 1 C TIP
3521 TIP3371 29473 RESIDUE 1 C TIP
3522 TIP3372 29476 RESIDUE 1 C TIP
3523 TIP3373 29479 RESIDUE 1 C TIP
3524 TIP3374 29482 RESIDUE 1 C TIP
3525 TIP3375 29485 RESIDUE 1 C TIP
3526 TIP3376 29488 RESIDUE 1 C TIP
3527 TIP3377 29491 RESIDUE 1 C TIP
3528 TIP3378 29494 RESIDUE 1 C TIP
3529 TIP3379 29497 RESIDUE 1 C TIP
3530 TIP3380 29500 RESIDUE 1 C TIP
3531 TIP3381 29503 RESIDUE 1 C TIP
3532 TIP3382 29506 RESIDUE 1 C TIP
3533 TIP3383 29509 RESIDUE 1 C TIP
3534 TIP3384 29512 RESIDUE 1 C TIP
3535 TIP3385 29515 RESIDUE 1 C TIP
3536 TIP3386 29518 RESIDUE 1 C TIP
3537 TIP3387 29521 RESIDUE 1 C TIP
3538 TIP3388 29524 RESIDUE 1 C TIP
3539 TIP3389 29527 RESIDUE 1 C TIP
3540 TIP3390 29530 RESIDUE 1 C TIP
3541 TIP3391 29533 RESIDUE 1 C TIP
3542 TIP3392 29536 RESIDUE 1 C TIP
3543 TIP3393 29539 RESIDUE 1 C TIP
3544 TIP3394 29542 RESIDUE 1 C TIP
3545 TIP3395 29545 RESIDUE 1 C TIP
3546 TIP3396 29548 RESIDUE 1 C TIP
3547 TIP3397 29551 RESIDUE 1 C TIP
3548 TIP3398 29554 RESIDUE 1 C TIP
3549 TIP3399 29557 RESIDUE 1 C TIP
3550 TIP3400 29560 RESIDUE 1 C TIP
3551 TIP3401 29563 RESIDUE 1 C TIP
3552 TIP3402 29566 RESIDUE 1 C TIP
3553 TIP3403 29569 RESIDUE 1 C TIP
3554 TIP3404 29572 RESIDUE 1 C TIP
3555 TIP3405 29575 RESIDUE 1 C TIP
3556 TIP3406 29578 RESIDUE 1 C TIP
3557 TIP3407 29581 RESIDUE 1 C TIP
3558 TIP3408 29584 RESIDUE 1 C TIP
3559 TIP3409 29587 RESIDUE 1 C TIP
3560 TIP3410 29590 RESIDUE 1 C TIP
3561 TIP3411 29593 RESIDUE 1 C TIP
3562 TIP3412 29596 RESIDUE 1 C TIP
3563 TIP3413 29599 RESIDUE 1 C TIP
3564 TIP3414 29602 RESIDUE 1 C TIP
3565 TIP3415 29605 RESIDUE 1 C TIP
3566 TIP3416 29608 RESIDUE 1 C TIP
3567 TIP3417 29611 RESIDUE 1 C TIP
3568 TIP3418 29614 RESIDUE 1 C TIP
3569 TIP3419 29617 RESIDUE 1 C TIP
3570 TIP3420 29620 RESIDUE 1 C TIP
3571 TIP3421 29623 RESIDUE 1 C TIP
3572 TIP3422 29626 RESIDUE 1 C TIP
3573 TIP3423 29629 RESIDUE 1 C TIP
3574 TIP3424 29632 RESIDUE 1 C TIP
3575 TIP3425 29635 RESIDUE 1 C TIP
3576 TIP3426 29638 RESIDUE 1 C TIP
3577 TIP3427 29641 RESIDUE 1 C TIP
3578 TIP3428 29644 RESIDUE 1 C TIP
3579 TIP3429 29647 RESIDUE 1 C TIP
3580 TIP3430 29650 RESIDUE 1 C TIP
3581 TIP3431 29653 RESIDUE 1 C TIP
3582 TIP3432 29656 RESIDUE 1 C TIP
3583 TIP3433 29659 RESIDUE 1 C TIP
3584 TIP3434 29662 RESIDUE 1 C TIP
3585 TIP3435 29665 RESIDUE 1 C TIP
3586 TIP3436 29668 RESIDUE 1 C TIP
3587 TIP3437 29671 RESIDUE 1 C TIP
3588 TIP3438 29674 RESIDUE 1 C TIP
3589 TIP3439 29677 RESIDUE 1 C TIP
3590 TIP3440 29680 RESIDUE 1 C TIP
3591 TIP3441 29683 RESIDUE 1 C TIP
3592 TIP3442 29686 RESIDUE 1 C TIP
3593 TIP3443 29689 RESIDUE 1 C TIP
3594 TIP3444 29692 RESIDUE 1 C TIP
3595 TIP3445 29695 RESIDUE 1 C TIP
3596 TIP3446 29698 RESIDUE 1 C TIP
3597 TIP3447 29701 RESIDUE 1 C TIP
3598 TIP3448 29704 RESIDUE 1 C TIP
3599 TIP3449 29707 RESIDUE 1 C TIP
3600 TIP3450 29710 RESIDUE 1 C TIP
3601 TIP3451 29713 RESIDUE 1 C TIP
3602 TIP3452 29716 RESIDUE 1 C TIP
3603 TIP3453 29719 RESIDUE 1 C TIP
3604 TIP3454 29722 RESIDUE 1 C TIP
3605 TIP3455 29725 RESIDUE 1 C TIP
3606 TIP3456 29728 RESIDUE 1 C TIP
3607 TIP3457 29731 RESIDUE 1 C TIP
3608 TIP3458 29734 RESIDUE 1 C TIP
3609 TIP3459 29737 RESIDUE 1 C TIP
3610 TIP3460 29740 RESIDUE 1 C TIP
3611 TIP3461 29743 RESIDUE 1 C TIP
3612 TIP3462 29746 RESIDUE 1 C TIP
3613 TIP3463 29749 RESIDUE 1 C TIP
3614 TIP3464 29752 RESIDUE 1 C TIP
3615 TIP3465 29755 RESIDUE 1 C TIP
3616 TIP3466 29758 RESIDUE 1 C TIP
3617 TIP3467 29761 RESIDUE 1 C TIP
3618 TIP3468 29764 RESIDUE 1 C TIP
3619 TIP3469 29767 RESIDUE 1 C TIP
3620 TIP3470 29770 RESIDUE 1 C TIP
3621 TIP3471 29773 RESIDUE 1 C TIP
3622 TIP3472 29776 RESIDUE 1 C TIP
3623 TIP3473 29779 RESIDUE 1 C TIP
3624 TIP3474 29782 RESIDUE 1 C TIP
3625 TIP3475 29785 RESIDUE 1 C TIP
3626 TIP3476 29788 RESIDUE 1 C TIP
3627 TIP3477 29791 RESIDUE 1 C TIP
3628 TIP3478 29794 RESIDUE 1 C TIP
3629 TIP3479 29797 RESIDUE 1 C TIP
3630 TIP3480 29800 RESIDUE 1 C TIP
3631 TIP3481 29803 RESIDUE 1 C TIP
3632 TIP3482 29806 RESIDUE 1 C TIP
3633 TIP3483 29809 RESIDUE 1 C TIP
3634 TIP3484 29812 RESIDUE 1 C TIP
3635 TIP3485 29815 RESIDUE 1 C TIP
3636 TIP3486 29818 RESIDUE 1 C TIP
3637 TIP3487 29821 RESIDUE 1 C TIP
3638 TIP3488 29824 RESIDUE 1 C TIP
3639 TIP3489 29827 RESIDUE 1 C TIP
3640 TIP3490 29830 RESIDUE 1 C TIP
3641 TIP3491 29833 RESIDUE 1 C TIP
3642 TIP3492 29836 RESIDUE 1 C TIP
3643 TIP3493 29839 RESIDUE 1 C TIP
3644 TIP3494 29842 RESIDUE 1 C TIP
3645 TIP3495 29845 RESIDUE 1 C TIP
3646 TIP3496 29848 RESIDUE 1 C TIP
3647 TIP3497 29851 RESIDUE 1 C TIP
3648 TIP3498 29854 RESIDUE 1 C TIP
3649 TIP3499 29857 RESIDUE 1 C TIP
3650 TIP3500 29860 RESIDUE 1 C TIP
3651 TIP3501 29863 RESIDUE 1 C TIP
3652 TIP3502 29866 RESIDUE 1 C TIP
3653 TIP3503 29869 RESIDUE 1 C TIP
3654 TIP3504 29872 RESIDUE 1 C TIP
3655 TIP3505 29875 RESIDUE 1 C TIP
3656 TIP3506 29878 RESIDUE 1 C TIP
3657 TIP3507 29881 RESIDUE 1 C TIP
3658 TIP3508 29884 RESIDUE 1 C TIP
3659 TIP3509 29887 RESIDUE 1 C TIP
3660 TIP3510 29890 RESIDUE 1 C TIP
3661 TIP3511 29893 RESIDUE 1 C TIP
3662 TIP3512 29896 RESIDUE 1 C TIP
3663 TIP3513 29899 RESIDUE 1 C TIP
3664 TIP3514 29902 RESIDUE 1 C TIP
3665 TIP3515 29905 RESIDUE 1 C TIP
3666 TIP3516 29908 RESIDUE 1 C TIP
3667 TIP3517 29911 RESIDUE 1 C TIP
3668 TIP3518 29914 RESIDUE 1 C TIP
3669 TIP3519 29917 RESIDUE 1 C TIP
3670 TIP3520 29920 RESIDUE 1 C TIP
3671 TIP3521 29923 RESIDUE 1 C TIP
3672 TIP3522 29926 RESIDUE 1 C TIP
3673 TIP3523 29929 RESIDUE 1 C TIP
3674 TIP3524 29932 RESIDUE 1 C TIP
3675 TIP3525 29935 RESIDUE 1 C TIP
3676 TIP3526 29938 RESIDUE 1 C TIP
3677 TIP3527 29941 RESIDUE 1 C TIP
3678 TIP3528 29944 RESIDUE 1 C TIP
3679 TIP3529 29947 RESIDUE 1 C TIP
3680 TIP3530 29950 RESIDUE 1 C TIP
3681 TIP3531 29953 RESIDUE 1 C TIP
3682 TIP3532 29956 RESIDUE 1 C TIP
3683 TIP3533 29959 RESIDUE 1 C TIP
3684 TIP3534 29962 RESIDUE 1 C TIP
3685 TIP3535 29965 RESIDUE 1 C TIP
3686 TIP3536 29968 RESIDUE 1 C TIP
3687 TIP3537 29971 RESIDUE 1 C TIP
3688 TIP3538 29974 RESIDUE 1 C TIP
3689 TIP3539 29977 RESIDUE 1 C TIP
3690 TIP3540 29980 RESIDUE 1 C TIP
3691 TIP3541 29983 RESIDUE 1 C TIP
3692 TIP3542 29986 RESIDUE 1 C TIP
3693 TIP3543 29989 RESIDUE 1 C TIP
3694 TIP3544 29992 RESIDUE 1 C TIP
3695 TIP3545 29995 RESIDUE 1 C TIP
3696 TIP3546 29998 RESIDUE 1 C TIP
3697 TIP3547 30001 RESIDUE 1 C TIP
3698 TIP3548 30004 RESIDUE 1 C TIP
3699 TIP3549 30007 RESIDUE 1 C TIP
3700 TIP3550 30010 RESIDUE 1 C TIP
3701 TIP3551 30013 RESIDUE 1 C TIP
3702 TIP3552 30016 RESIDUE 1 C TIP
3703 TIP3553 30019 RESIDUE 1 C TIP
3704 TIP3554 30022 RESIDUE 1 C TIP
3705 TIP3555 30025 RESIDUE 1 C TIP
3706 TIP3556 30028 RESIDUE 1 C TIP
3707 TIP3557 30031 RESIDUE 1 C TIP
3708 TIP3558 30034 RESIDUE 1 C TIP
3709 TIP3559 30037 RESIDUE 1 C TIP
3710 TIP3560 30040 RESIDUE 1 C TIP
3711 TIP3561 30043 RESIDUE 1 C TIP
3712 TIP3562 30046 RESIDUE 1 C TIP
3713 TIP3563 30049 RESIDUE 1 C TIP
3714 TIP3564 30052 RESIDUE 1 C TIP
3715 TIP3565 30055 RESIDUE 1 C TIP
3716 TIP3566 30058 RESIDUE 1 C TIP
3717 TIP3567 30061 RESIDUE 1 C TIP
3718 TIP3568 30064 RESIDUE 1 C TIP
3719 TIP3569 30067 RESIDUE 1 C TIP
3720 TIP3570 30070 RESIDUE 1 C TIP
3721 TIP3571 30073 RESIDUE 1 C TIP
3722 TIP3572 30076 RESIDUE 1 C TIP
3723 TIP3573 30079 RESIDUE 1 C TIP
3724 TIP3574 30082 RESIDUE 1 C TIP
3725 TIP3575 30085 RESIDUE 1 C TIP
3726 TIP3576 30088 RESIDUE 1 C TIP
3727 TIP3577 30091 RESIDUE 1 C TIP
3728 TIP3578 30094 RESIDUE 1 C TIP
3729 TIP3579 30097 RESIDUE 1 C TIP
3730 TIP3580 30100 RESIDUE 1 C TIP
3731 TIP3581 30103 RESIDUE 1 C TIP
3732 TIP3582 30106 RESIDUE 1 C TIP
3733 TIP3583 30109 RESIDUE 1 C TIP
3734 TIP3584 30112 RESIDUE 1 C TIP
3735 TIP3585 30115 RESIDUE 1 C TIP
3736 TIP3586 30118 RESIDUE 1 C TIP
3737 TIP3587 30121 RESIDUE 1 C TIP
3738 TIP3588 30124 RESIDUE 1 C TIP
3739 TIP3589 30127 RESIDUE 1 C TIP
3740 TIP3590 30130 RESIDUE 1 C TIP
3741 TIP3591 30133 RESIDUE 1 C TIP
3742 TIP3592 30136 RESIDUE 1 C TIP
3743 TIP3593 30139 RESIDUE 1 C TIP
3744 TIP3594 30142 RESIDUE 1 C TIP
3745 TIP3595 30145 RESIDUE 1 C TIP
3746 TIP3596 30148 RESIDUE 1 C TIP
3747 TIP3597 30151 RESIDUE 1 C TIP
3748 TIP3598 30154 RESIDUE 1 C TIP
3749 TIP3599 30157 RESIDUE 1 C TIP
3750 TIP3600 30160 RESIDUE 1 C TIP
3751 TIP3601 30163 RESIDUE 1 C TIP
3752 TIP3602 30166 RESIDUE 1 C TIP
3753 TIP3603 30169 RESIDUE 1 C TIP
3754 TIP3604 30172 RESIDUE 1 C TIP
3755 TIP3605 30175 RESIDUE 1 C TIP
3756 TIP3606 30178 RESIDUE 1 C TIP
3757 TIP3607 30181 RESIDUE 1 C TIP
3758 TIP3608 30184 RESIDUE 1 C TIP
3759 TIP3609 30187 RESIDUE 1 C TIP
3760 TIP3610 30190 RESIDUE 1 C TIP
3761 TIP3611 30193 RESIDUE 1 C TIP
3762 TIP3612 30196 RESIDUE 1 C TIP
3763 TIP3613 30199 RESIDUE 1 C TIP
3764 TIP3614 30202 RESIDUE 1 C TIP
3765 TIP3615 30205 RESIDUE 1 C TIP
3766 TIP3616 30208 RESIDUE 1 C TIP
3767 TIP3617 30211 RESIDUE 1 C TIP
3768 TIP3618 30214 RESIDUE 1 C TIP
3769 TIP3619 30217 RESIDUE 1 C TIP
3770 TIP3620 30220 RESIDUE 1 C TIP
3771 TIP3621 30223 RESIDUE 1 C TIP
3772 TIP3622 30226 RESIDUE 1 C TIP
3773 TIP3623 30229 RESIDUE 1 C TIP
3774 TIP3624 30232 RESIDUE 1 C TIP
3775 TIP3625 30235 RESIDUE 1 C TIP
3776 TIP3626 30238 RESIDUE 1 C TIP
3777 TIP3627 30241 RESIDUE 1 C TIP
3778 TIP3628 30244 RESIDUE 1 C TIP
3779 TIP3629 30247 RESIDUE 1 C TIP
3780 TIP3630 30250 RESIDUE 1 C TIP
3781 TIP3631 30253 RESIDUE 1 C TIP
3782 TIP3632 30256 RESIDUE 1 C TIP
3783 TIP3633 30259 RESIDUE 1 C TIP
3784 TIP3634 30262 RESIDUE 1 C TIP
3785 TIP3635 30265 RESIDUE 1 C TIP
3786 TIP3636 30268 RESIDUE 1 C TIP
3787 TIP3637 30271 RESIDUE 1 C TIP
3788 TIP3638 30274 RESIDUE 1 C TIP
3789 TIP3639 30277 RESIDUE 1 C TIP
3790 TIP3640 30280 RESIDUE 1 C TIP
3791 TIP3641 30283 RESIDUE 1 C TIP
3792 TIP3642 30286 RESIDUE 1 C TIP
3793 TIP3643 30289 RESIDUE 1 C TIP
3794 TIP3644 30292 RESIDUE 1 C TIP
3795 TIP3645 30295 RESIDUE 1 C TIP
3796 TIP3646 30298 RESIDUE 1 C TIP
3797 TIP3647 30301 RESIDUE 1 C TIP
3798 TIP3648 30304 RESIDUE 1 C TIP
3799 TIP3649 30307 RESIDUE 1 C TIP
3800 TIP3650 30310 RESIDUE 1 C TIP
3801 TIP3651 30313 RESIDUE 1 C TIP
3802 TIP3652 30316 RESIDUE 1 C TIP
3803 TIP3653 30319 RESIDUE 1 C TIP
3804 TIP3654 30322 RESIDUE 1 C TIP
3805 TIP3655 30325 RESIDUE 1 C TIP
3806 TIP3656 30328 RESIDUE 1 C TIP
3807 TIP3657 30331 RESIDUE 1 C TIP
3808 TIP3658 30334 RESIDUE 1 C TIP
3809 TIP3659 30337 RESIDUE 1 C TIP
3810 TIP3660 30340 RESIDUE 1 C TIP
3811 TIP3661 30343 RESIDUE 1 C TIP
3812 TIP3662 30346 RESIDUE 1 C TIP
3813 TIP3663 30349 RESIDUE 1 C TIP
3814 TIP3664 30352 RESIDUE 1 C TIP
3815 TIP3665 30355 RESIDUE 1 C TIP
3816 TIP3666 30358 RESIDUE 1 C TIP
3817 TIP3667 30361 RESIDUE 1 C TIP
3818 TIP3668 30364 RESIDUE 1 C TIP
3819 TIP3669 30367 RESIDUE 1 C TIP
3820 TIP3670 30370 RESIDUE 1 C TIP
3821 TIP3671 30373 RESIDUE 1 C TIP
3822 TIP3672 30376 RESIDUE 1 C TIP
3823 TIP3673 30379 RESIDUE 1 C TIP
3824 TIP3674 30382 RESIDUE 1 C TIP
3825 TIP3675 30385 RESIDUE 1 C TIP
3826 TIP3676 30388 RESIDUE 1 C TIP
3827 TIP3677 30391 RESIDUE 1 C TIP
3828 TIP3678 30394 RESIDUE 1 C TIP
3829 TIP3679 30397 RESIDUE 1 C TIP
3830 TIP3680 30400 RESIDUE 1 C TIP
3831 TIP3681 30403 RESIDUE 1 C TIP
3832 TIP3682 30406 RESIDUE 1 C TIP
3833 TIP3683 30409 RESIDUE 1 C TIP
3834 TIP3684 30412 RESIDUE 1 C TIP
3835 TIP3685 30415 RESIDUE 1 C TIP
3836 TIP3686 30418 RESIDUE 1 C TIP
3837 TIP3687 30421 RESIDUE 1 C TIP
3838 TIP3688 30424 RESIDUE 1 C TIP
3839 TIP3689 30427 RESIDUE 1 C TIP
3840 TIP3690 30430 RESIDUE 1 C TIP
3841 TIP3691 30433 RESIDUE 1 C TIP
3842 TIP3692 30436 RESIDUE 1 C TIP
3843 TIP3693 30439 RESIDUE 1 C TIP
3844 TIP3694 30442 RESIDUE 1 C TIP
3845 TIP3695 30445 RESIDUE 1 C TIP
3846 TIP3696 30448 RESIDUE 1 C TIP
3847 TIP3697 30451 RESIDUE 1 C TIP
3848 TIP3698 30454 RESIDUE 1 C TIP
3849 TIP3699 30457 RESIDUE 1 C TIP
3850 TIP3700 30460 RESIDUE 1 C TIP
3851 TIP3701 30463 RESIDUE 1 C TIP
3852 TIP3702 30466 RESIDUE 1 C TIP
3853 TIP3703 30469 RESIDUE 1 C TIP
3854 TIP3704 30472 RESIDUE 1 C TIP
3855 TIP3705 30475 RESIDUE 1 C TIP
3856 TIP3706 30478 RESIDUE 1 C TIP
3857 TIP3707 30481 RESIDUE 1 C TIP
3858 TIP3708 30484 RESIDUE 1 C TIP
3859 TIP3709 30487 RESIDUE 1 C TIP
3860 TIP3710 30490 RESIDUE 1 C TIP
3861 TIP3711 30493 RESIDUE 1 C TIP
3862 TIP3712 30496 RESIDUE 1 C TIP
3863 TIP3713 30499 RESIDUE 1 C TIP
3864 TIP3714 30502 RESIDUE 1 C TIP
3865 TIP3715 30505 RESIDUE 1 C TIP
3866 TIP3716 30508 RESIDUE 1 C TIP
3867 TIP3717 30511 RESIDUE 1 C TIP
3868 TIP3718 30514 RESIDUE 1 C TIP
3869 TIP3719 30517 RESIDUE 1 C TIP
3870 TIP3720 30520 RESIDUE 1 C TIP
3871 TIP3721 30523 RESIDUE 1 C TIP
3872 TIP3722 30526 RESIDUE 1 C TIP
3873 TIP3723 30529 RESIDUE 1 C TIP
3874 TIP3724 30532 RESIDUE 1 C TIP
3875 TIP3725 30535 RESIDUE 1 C TIP
3876 TIP3726 30538 RESIDUE 1 C TIP
3877 TIP3727 30541 RESIDUE 1 C TIP
3878 TIP3728 30544 RESIDUE 1 C TIP
3879 TIP3729 30547 RESIDUE 1 C TIP
3880 TIP3730 30550 RESIDUE 1 C TIP
3881 TIP3731 30553 RESIDUE 1 C TIP
3882 TIP3732 30556 RESIDUE 1 C TIP
3883 TIP3733 30559 RESIDUE 1 C TIP
3884 TIP3734 30562 RESIDUE 1 C TIP
3885 TIP3735 30565 RESIDUE 1 C TIP
3886 TIP3736 30568 RESIDUE 1 C TIP
3887 TIP3737 30571 RESIDUE 1 C TIP
3888 TIP3738 30574 RESIDUE 1 C TIP
3889 TIP3739 30577 RESIDUE 1 C TIP
3890 TIP3740 30580 RESIDUE 1 C TIP
3891 TIP3741 30583 RESIDUE 1 C TIP
3892 TIP3742 30586 RESIDUE 1 C TIP
3893 TIP3743 30589 RESIDUE 1 C TIP
3894 TIP3744 30592 RESIDUE 1 C TIP
3895 TIP3745 30595 RESIDUE 1 C TIP
3896 TIP3746 30598 RESIDUE 1 C TIP
3897 TIP3747 30601 RESIDUE 1 C TIP
3898 TIP3748 30604 RESIDUE 1 C TIP
3899 TIP3749 30607 RESIDUE 1 C TIP
3900 TIP3750 30610 RESIDUE 1 C TIP
3901 TIP3751 30613 RESIDUE 1 C TIP
3902 TIP3752 30616 RESIDUE 1 C TIP
3903 TIP3753 30619 RESIDUE 1 C TIP
3904 TIP3754 30622 RESIDUE 1 C TIP
3905 TIP3755 30625 RESIDUE 1 C TIP
3906 TIP3756 30628 RESIDUE 1 C TIP
3907 TIP3757 30631 RESIDUE 1 C TIP
3908 TIP3758 30634 RESIDUE 1 C TIP
3909 TIP3759 30637 RESIDUE 1 C TIP
3910 TIP3760 30640 RESIDUE 1 C TIP
3911 TIP3761 30643 RESIDUE 1 C TIP
3912 TIP3762 30646 RESIDUE 1 C TIP
3913 TIP3763 30649 RESIDUE 1 C TIP
3914 TIP3764 30652 RESIDUE 1 C TIP
3915 TIP3765 30655 RESIDUE 1 C TIP
3916 TIP3766 30658 RESIDUE 1 C TIP
3917 TIP3767 30661 RESIDUE 1 C TIP
3918 TIP3768 30664 RESIDUE 1 C TIP
3919 TIP3769 30667 RESIDUE 1 C TIP
3920 TIP3770 30670 RESIDUE 1 C TIP
3921 TIP3771 30673 RESIDUE 1 C TIP
3922 TIP3772 30676 RESIDUE 1 C TIP
3923 TIP3773 30679 RESIDUE 1 C TIP
3924 TIP3774 30682 RESIDUE 1 C TIP
3925 TIP3775 30685 RESIDUE 1 C TIP
3926 TIP3776 30688 RESIDUE 1 C TIP
3927 TIP3777 30691 RESIDUE 1 C TIP
3928 TIP3778 30694 RESIDUE 1 C TIP
3929 TIP3779 30697 RESIDUE 1 C TIP
3930 TIP3780 30700 RESIDUE 1 C TIP
3931 TIP3781 30703 RESIDUE 1 C TIP
3932 TIP3782 30706 RESIDUE 1 C TIP
3933 TIP3783 30709 RESIDUE 1 C TIP
3934 TIP3784 30712 RESIDUE 1 C TIP
3935 TIP3785 30715 RESIDUE 1 C TIP
3936 TIP3786 30718 RESIDUE 1 C TIP
3937 TIP3787 30721 RESIDUE 1 C TIP
3938 TIP3788 30724 RESIDUE 1 C TIP
3939 TIP3789 30727 RESIDUE 1 C TIP
3940 TIP3790 30730 RESIDUE 1 C TIP
3941 TIP3791 30733 RESIDUE 1 C TIP
3942 TIP3792 30736 RESIDUE 1 C TIP
3943 TIP3793 30739 RESIDUE 1 C TIP
3944 TIP3794 30742 RESIDUE 1 C TIP
3945 TIP3795 30745 RESIDUE 1 C TIP
3946 TIP3796 30748 RESIDUE 1 C TIP
3947 TIP3797 30751 RESIDUE 1 C TIP
3948 TIP3798 30754 RESIDUE 1 C TIP
3949 TIP3799 30757 RESIDUE 1 C TIP
3950 TIP3800 30760 RESIDUE 1 C TIP
3951 TIP3801 30763 RESIDUE 1 C TIP
3952 TIP3802 30766 RESIDUE 1 C TIP
3953 TIP3803 30769 RESIDUE 1 C TIP
3954 TIP3804 30772 RESIDUE 1 C TIP
3955 TIP3805 30775 RESIDUE 1 C TIP
3956 TIP3806 30778 RESIDUE 1 C TIP
3957 TIP3807 30781 RESIDUE 1 C TIP
3958 TIP3808 30784 RESIDUE 1 C TIP
3959 TIP3809 30787 RESIDUE 1 C TIP
3960 TIP3810 30790 RESIDUE 1 C TIP
3961 TIP3811 30793 RESIDUE 1 C TIP
3962 TIP3812 30796 RESIDUE 1 C TIP
3963 TIP3813 30799 RESIDUE 1 C TIP
3964 TIP3814 30802 RESIDUE 1 C TIP
3965 TIP3815 30805 RESIDUE 1 C TIP
3966 TIP3816 30808 RESIDUE 1 C TIP
3967 TIP3817 30811 RESIDUE 1 C TIP
3968 TIP3818 30814 RESIDUE 1 C TIP
3969 TIP3819 30817 RESIDUE 1 C TIP
3970 TIP3820 30820 RESIDUE 1 C TIP
3971 TIP3821 30823 RESIDUE 1 C TIP
3972 TIP3822 30826 RESIDUE 1 C TIP
3973 TIP3823 30829 RESIDUE 1 C TIP
3974 TIP3824 30832 RESIDUE 1 C TIP
3975 TIP3825 30835 RESIDUE 1 C TIP
3976 TIP3826 30838 RESIDUE 1 C TIP
3977 TIP3827 30841 RESIDUE 1 C TIP
3978 TIP3828 30844 RESIDUE 1 C TIP
3979 TIP3829 30847 RESIDUE 1 C TIP
3980 TIP3830 30850 RESIDUE 1 C TIP
3981 TIP3831 30853 RESIDUE 1 C TIP
3982 TIP3832 30856 RESIDUE 1 C TIP
3983 TIP3833 30859 RESIDUE 1 C TIP
3984 TIP3834 30862 RESIDUE 1 C TIP
3985 TIP3835 30865 RESIDUE 1 C TIP
3986 TIP3836 30868 RESIDUE 1 C TIP
3987 TIP3837 30871 RESIDUE 1 C TIP
3988 TIP3838 30874 RESIDUE 1 C TIP
3989 TIP3839 30877 RESIDUE 1 C TIP
3990 TIP3840 30880 RESIDUE 1 C TIP
3991 TIP3841 30883 RESIDUE 1 C TIP
3992 TIP3842 30886 RESIDUE 1 C TIP
3993 TIP3843 30889 RESIDUE 1 C TIP
3994 TIP3844 30892 RESIDUE 1 C TIP
3995 TIP3845 30895 RESIDUE 1 C TIP
3996 TIP3846 30898 RESIDUE 1 C TIP
3997 TIP3847 30901 RESIDUE 1 C TIP
3998 TIP3848 30904 RESIDUE 1 C TIP
3999 TIP3849 30907 RESIDUE 1 C TIP
4000 TIP3850 30910 RESIDUE 1 C TIP
4001 TIP3851 30913 RESIDUE 1 C TIP
4002 TIP3852 30916 RESIDUE 1 C TIP
4003 TIP3853 30919 RESIDUE 1 C TIP
4004 TIP3854 30922 RESIDUE 1 C TIP
4005 TIP3855 30925 RESIDUE 1 C TIP
4006 TIP3856 30928 RESIDUE 1 C TIP
4007 TIP3857 30931 RESIDUE 1 C TIP
4008 TIP3858 30934 RESIDUE 1 C TIP
4009 TIP3859 30937 RESIDUE 1 C TIP
4010 TIP3860 30940 RESIDUE 1 C TIP
4011 TIP3861 30943 RESIDUE 1 C TIP
4012 TIP3862 30946 RESIDUE 1 C TIP
4013 TIP3863 30949 RESIDUE 1 C TIP
4014 TIP3864 30952 RESIDUE 1 C TIP
4015 TIP3865 30955 RESIDUE 1 C TIP
4016 TIP3866 30958 RESIDUE 1 C TIP
4017 TIP3867 30961 RESIDUE 1 C TIP
4018 TIP3868 30964 RESIDUE 1 C TIP
4019 TIP3869 30967 RESIDUE 1 C TIP
4020 TIP3870 30970 RESIDUE 1 C TIP
4021 TIP3871 30973 RESIDUE 1 C TIP
4022 TIP3872 30976 RESIDUE 1 C TIP
4023 TIP3873 30979 RESIDUE 1 C TIP
4024 TIP3874 30982 RESIDUE 1 C TIP
4025 TIP3875 30985 RESIDUE 1 C TIP
4026 TIP3876 30988 RESIDUE 1 C TIP
4027 TIP3877 30991 RESIDUE 1 C TIP
4028 TIP3878 30994 RESIDUE 1 C TIP
4029 TIP3879 30997 RESIDUE 1 C TIP
4030 TIP3880 31000 RESIDUE 1 C TIP
4031 TIP3881 31003 RESIDUE 1 C TIP
4032 TIP3882 31006 RESIDUE 1 C TIP
4033 TIP3883 31009 RESIDUE 1 C TIP
4034 TIP3884 31012 RESIDUE 1 C TIP
4035 TIP3885 31015 RESIDUE 1 C TIP
4036 TIP3886 31018 RESIDUE 1 C TIP
4037 TIP3887 31021 RESIDUE 1 C TIP
4038 TIP3888 31024 RESIDUE 1 C TIP
4039 TIP3889 31027 RESIDUE 1 C TIP
4040 TIP3890 31030 RESIDUE 1 C TIP
4041 TIP3891 31033 RESIDUE 1 C TIP
4042 TIP3892 31036 RESIDUE 1 C TIP
4043 TIP3893 31039 RESIDUE 1 C TIP
4044 TIP3894 31042 RESIDUE 1 C TIP
4045 TIP3895 31045 RESIDUE 1 C TIP
4046 TIP3896 31048 RESIDUE 1 C TIP
4047 TIP3897 31051 RESIDUE 1 C TIP
4048 TIP3898 31054 RESIDUE 1 C TIP
4049 TIP3899 31057 RESIDUE 1 C TIP
4050 TIP3900 31060 RESIDUE 1 C TIP
4051 TIP3901 31063 RESIDUE 1 C TIP
4052 TIP3902 31066 RESIDUE 1 C TIP
4053 TIP3903 31069 RESIDUE 1 C TIP
4054 TIP3904 31072 RESIDUE 1 C TIP
4055 TIP3905 31075 RESIDUE 1 C TIP
4056 TIP3906 31078 RESIDUE 1 C TIP
4057 TIP3907 31081 RESIDUE 1 C TIP
4058 TIP3908 31084 RESIDUE 1 C TIP
4059 TIP3909 31087 RESIDUE 1 C TIP
4060 TIP3910 31090 RESIDUE 1 C TIP
4061 TIP3911 31093 RESIDUE 1 C TIP
4062 TIP3912 31096 RESIDUE 1 C TIP
4063 TIP3913 31099 RESIDUE 1 C TIP
4064 TIP3914 31102 RESIDUE 1 C TIP
4065 TIP3915 31105 RESIDUE 1 C TIP
4066 TIP3916 31108 RESIDUE 1 C TIP
4067 TIP3917 31111 RESIDUE 1 C TIP
4068 TIP3918 31114 RESIDUE 1 C TIP
4069 TIP3919 31117 RESIDUE 1 C TIP
4070 TIP3920 31120 RESIDUE 1 C TIP
4071 TIP3921 31123 RESIDUE 1 C TIP
4072 TIP3922 31126 RESIDUE 1 C TIP
4073 TIP3923 31129 RESIDUE 1 C TIP
4074 TIP3924 31132 RESIDUE 1 C TIP
4075 TIP3925 31135 RESIDUE 1 C TIP
4076 TIP3926 31138 RESIDUE 1 C TIP
4077 TIP3927 31141 RESIDUE 1 C TIP
4078 TIP3928 31144 RESIDUE 1 C TIP
4079 TIP3929 31147 RESIDUE 1 C TIP
4080 TIP3930 31150 RESIDUE 1 C TIP
4081 TIP3931 31153 RESIDUE 1 C TIP
4082 TIP3932 31156 RESIDUE 1 C TIP
4083 TIP3933 31159 RESIDUE 1 C TIP
4084 TIP3934 31162 RESIDUE 1 C TIP
4085 TIP3935 31165 RESIDUE 1 C TIP
4086 TIP3936 31168 RESIDUE 1 C TIP
4087 TIP3937 31171 RESIDUE 1 C TIP
4088 TIP3938 31174 RESIDUE 1 C TIP
4089 TIP3939 31177 RESIDUE 1 C TIP
4090 TIP3940 31180 RESIDUE 1 C TIP
4091 TIP3941 31183 RESIDUE 1 C TIP
4092 TIP3942 31186 RESIDUE 1 C TIP
4093 TIP3943 31189 RESIDUE 1 C TIP
4094 TIP3944 31192 RESIDUE 1 C TIP
4095 TIP3945 31195 RESIDUE 1 C TIP
4096 TIP3946 31198 RESIDUE 1 C TIP
4097 TIP3947 31201 RESIDUE 1 C TIP
4098 TIP3948 31204 RESIDUE 1 C TIP
4099 TIP3949 31207 RESIDUE 1 C TIP
4100 TIP3950 31210 RESIDUE 1 C TIP
4101 TIP3951 31213 RESIDUE 1 C TIP
4102 TIP3952 31216 RESIDUE 1 C TIP
4103 TIP3953 31219 RESIDUE 1 C TIP
4104 TIP3954 31222 RESIDUE 1 C TIP
4105 TIP3955 31225 RESIDUE 1 C TIP
4106 TIP3956 31228 RESIDUE 1 C TIP
4107 TIP3957 31231 RESIDUE 1 C TIP
4108 TIP3958 31234 RESIDUE 1 C TIP
4109 TIP3959 31237 RESIDUE 1 C TIP
4110 TIP3960 31240 RESIDUE 1 C TIP
4111 TIP3961 31243 RESIDUE 1 C TIP
4112 TIP3962 31246 RESIDUE 1 C TIP
4113 TIP3963 31249 RESIDUE 1 C TIP
4114 TIP3964 31252 RESIDUE 1 C TIP
4115 TIP3965 31255 RESIDUE 1 C TIP
4116 TIP3966 31258 RESIDUE 1 C TIP
4117 TIP3967 31261 RESIDUE 1 C TIP
4118 TIP3968 31264 RESIDUE 1 C TIP
4119 TIP3969 31267 RESIDUE 1 C TIP
4120 TIP3970 31270 RESIDUE 1 C TIP
4121 TIP3971 31273 RESIDUE 1 C TIP
4122 TIP3972 31276 RESIDUE 1 C TIP
4123 TIP3973 31279 RESIDUE 1 C TIP
4124 TIP3974 31282 RESIDUE 1 C TIP
4125 TIP3975 31285 RESIDUE 1 C TIP
4126 TIP3976 31288 RESIDUE 1 C TIP
4127 TIP3977 31291 RESIDUE 1 C TIP
4128 TIP3978 31294 RESIDUE 1 C TIP
4129 TIP3979 31297 RESIDUE 1 C TIP
4130 TIP3980 31300 RESIDUE 1 C TIP
4131 TIP3981 31303 RESIDUE 1 C TIP
4132 TIP3982 31306 RESIDUE 1 C TIP
4133 TIP3983 31309 RESIDUE 1 C TIP
4134 TIP3984 31312 RESIDUE 1 C TIP
4135 TIP3985 31315 RESIDUE 1 C TIP
4136 TIP3986 31318 RESIDUE 1 C TIP
4137 TIP3987 31321 RESIDUE 1 C TIP
4138 TIP3988 31324 RESIDUE 1 C TIP
4139 TIP3989 31327 RESIDUE 1 C TIP
4140 TIP3990 31330 RESIDUE 1 C TIP
4141 TIP3991 31333 RESIDUE 1 C TIP
4142 TIP3992 31336 RESIDUE 1 C TIP
4143 TIP3993 31339 RESIDUE 1 C TIP
4144 TIP3994 31342 RESIDUE 1 C TIP
4145 TIP3995 31345 RESIDUE 1 C TIP
4146 TIP3996 31348 RESIDUE 1 C TIP
4147 TIP3997 31351 RESIDUE 1 C TIP
4148 TIP3998 31354 RESIDUE 1 C TIP
4149 TIP3999 31357 RESIDUE 1 C TIP
4150 TIP4000 31360 RESIDUE 1 C TIP
4151 TIP4001 31363 RESIDUE 1 C TIP
4152 TIP4002 31366 RESIDUE 1 C TIP
4153 TIP4003 31369 RESIDUE 1 C TIP
4154 TIP4004 31372 RESIDUE 1 C TIP
4155 TIP4005 31375 RESIDUE 1 C TIP
4156 TIP4006 31378 RESIDUE 1 C TIP
4157 TIP4007 31381 RESIDUE 1 C TIP
4158 TIP4008 31384 RESIDUE 1 C TIP
4159 TIP4009 31387 RESIDUE 1 C TIP
4160 TIP4010 31390 RESIDUE 1 C TIP
4161 TIP4011 31393 RESIDUE 1 C TIP
4162 TIP4012 31396 RESIDUE 1 C TIP
4163 TIP4013 31399 RESIDUE 1 C TIP
4164 TIP4014 31402 RESIDUE 1 C TIP
4165 TIP4015 31405 RESIDUE 1 C TIP
4166 TIP4016 31408 RESIDUE 1 C TIP
4167 TIP4017 31411 RESIDUE 1 C TIP
4168 TIP4018 31414 RESIDUE 1 C TIP
4169 TIP4019 31417 RESIDUE 1 C TIP
4170 TIP4020 31420 RESIDUE 1 C TIP
4171 TIP4021 31423 RESIDUE 1 C TIP
4172 TIP4022 31426 RESIDUE 1 C TIP
4173 TIP4023 31429 RESIDUE 1 C TIP
4174 TIP4024 31432 RESIDUE 1 C TIP
4175 TIP4025 31435 RESIDUE 1 C TIP
4176 TIP4026 31438 RESIDUE 1 C TIP
4177 TIP4027 31441 RESIDUE 1 C TIP
4178 TIP4028 31444 RESIDUE 1 C TIP
4179 TIP4029 31447 RESIDUE 1 C TIP
4180 TIP4030 31450 RESIDUE 1 C TIP
4181 TIP4031 31453 RESIDUE 1 C TIP
4182 TIP4032 31456 RESIDUE 1 C TIP
4183 TIP4033 31459 RESIDUE 1 C TIP
4184 TIP4034 31462 RESIDUE 1 C TIP
4185 TIP4035 31465 RESIDUE 1 C TIP
4186 TIP4036 31468 RESIDUE 1 C TIP
4187 TIP4037 31471 RESIDUE 1 C TIP
4188 TIP4038 31474 RESIDUE 1 C TIP
4189 TIP4039 31477 RESIDUE 1 C TIP
4190 TIP4040 31480 RESIDUE 1 C TIP
4191 TIP4041 31483 RESIDUE 1 C TIP
4192 TIP4042 31486 RESIDUE 1 C TIP
4193 TIP4043 31489 RESIDUE 1 C TIP
4194 TIP4044 31492 RESIDUE 1 C TIP
4195 TIP4045 31495 RESIDUE 1 C TIP
4196 TIP4046 31498 RESIDUE 1 C TIP
4197 TIP4047 31501 RESIDUE 1 C TIP
4198 TIP4048 31504 RESIDUE 1 C TIP
4199 TIP4049 31507 RESIDUE 1 C TIP
4200 TIP4050 31510 RESIDUE 1 C TIP
4201 TIP4051 31513 RESIDUE 1 C TIP
4202 TIP4052 31516 RESIDUE 1 C TIP
4203 TIP4053 31519 RESIDUE 1 C TIP
4204 TIP4054 31522 RESIDUE 1 C TIP
4205 TIP4055 31525 RESIDUE 1 C TIP
4206 TIP4056 31528 RESIDUE 1 C TIP
4207 TIP4057 31531 RESIDUE 1 C TIP
4208 TIP4058 31534 RESIDUE 1 C TIP
4209 TIP4059 31537 RESIDUE 1 C TIP
4210 TIP4060 31540 RESIDUE 1 C TIP
4211 TIP4061 31543 RESIDUE 1 C TIP
4212 TIP4062 31546 RESIDUE 1 C TIP
4213 TIP4063 31549 RESIDUE 1 C TIP
4214 TIP4064 31552 RESIDUE 1 C TIP
4215 TIP4065 31555 RESIDUE 1 C TIP
4216 TIP4066 31558 RESIDUE 1 C TIP
4217 TIP4067 31561 RESIDUE 1 C TIP
4218 TIP4068 31564 RESIDUE 1 C TIP
4219 TIP4069 31567 RESIDUE 1 C TIP
4220 TIP4070 31570 RESIDUE 1 C TIP
4221 TIP4071 31573 RESIDUE 1 C TIP
4222 TIP4072 31576 RESIDUE 1 C TIP
4223 TIP4073 31579 RESIDUE 1 C TIP
4224 TIP4074 31582 RESIDUE 1 C TIP
4225 TIP4075 31585 RESIDUE 1 C TIP
4226 TIP4076 31588 RESIDUE 1 C TIP
4227 TIP4077 31591 RESIDUE 1 C TIP
4228 TIP4078 31594 RESIDUE 1 C TIP
4229 TIP4079 31597 RESIDUE 1 C TIP
4230 TIP4080 31600 RESIDUE 1 C TIP
4231 TIP4081 31603 RESIDUE 1 C TIP
4232 TIP4082 31606 RESIDUE 1 C TIP
4233 TIP4083 31609 RESIDUE 1 C TIP
4234 TIP4084 31612 RESIDUE 1 C TIP
4235 TIP4085 31615 RESIDUE 1 C TIP
4236 TIP4086 31618 RESIDUE 1 C TIP
4237 TIP4087 31621 RESIDUE 1 C TIP
4238 TIP4088 31624 RESIDUE 1 C TIP
4239 TIP4089 31627 RESIDUE 1 C TIP
4240 TIP4090 31630 RESIDUE 1 C TIP
4241 TIP4091 31633 RESIDUE 1 C TIP
4242 TIP4092 31636 RESIDUE 1 C TIP
4243 TIP4093 31639 RESIDUE 1 C TIP
4244 TIP4094 31642 RESIDUE 1 C TIP
4245 TIP4095 31645 RESIDUE 1 C TIP
4246 TIP4096 31648 RESIDUE 1 C TIP
4247 TIP4097 31651 RESIDUE 1 C TIP
4248 TIP4098 31654 RESIDUE 1 C TIP
4249 TIP4099 31657 RESIDUE 1 C TIP
4250 TIP4100 31660 RESIDUE 1 C TIP
4251 TIP4101 31663 RESIDUE 1 C TIP
4252 TIP4102 31666 RESIDUE 1 C TIP
4253 TIP4103 31669 RESIDUE 1 C TIP
4254 TIP4104 31672 RESIDUE 1 C TIP
4255 TIP4105 31675 RESIDUE 1 C TIP
4256 TIP4106 31678 RESIDUE 1 C TIP
4257 TIP4107 31681 RESIDUE 1 C TIP
4258 TIP4108 31684 RESIDUE 1 C TIP
4259 TIP4109 31687 RESIDUE 1 C TIP
4260 TIP4110 31690 RESIDUE 1 C TIP
4261 TIP4111 31693 RESIDUE 1 C TIP
4262 TIP4112 31696 RESIDUE 1 C TIP
4263 TIP4113 31699 RESIDUE 1 C TIP
4264 TIP4114 31702 RESIDUE 1 C TIP
4265 TIP4115 31705 RESIDUE 1 C TIP
4266 TIP4116 31708 RESIDUE 1 C TIP
4267 TIP4117 31711 RESIDUE 1 C TIP
4268 TIP4118 31714 RESIDUE 1 C TIP
4269 TIP4119 31717 RESIDUE 1 C TIP
4270 TIP4120 31720 RESIDUE 1 C TIP
4271 TIP4121 31723 RESIDUE 1 C TIP
4272 TIP4122 31726 RESIDUE 1 C TIP
4273 TIP4123 31729 RESIDUE 1 C TIP
4274 TIP4124 31732 RESIDUE 1 C TIP
4275 TIP4125 31735 RESIDUE 1 C TIP
4276 TIP4126 31738 RESIDUE 1 C TIP
4277 TIP4127 31741 RESIDUE 1 C TIP
4278 TIP4128 31744 RESIDUE 1 C TIP
4279 TIP4129 31747 RESIDUE 1 C TIP
4280 TIP4130 31750 RESIDUE 1 C TIP
4281 TIP4131 31753 RESIDUE 1 C TIP
4282 TIP4132 31756 RESIDUE 1 C TIP
4283 TIP4133 31759 RESIDUE 1 C TIP
4284 TIP4134 31762 RESIDUE 1 C TIP
4285 TIP4135 31765 RESIDUE 1 C TIP
4286 TIP4136 31768 RESIDUE 1 C TIP
4287 TIP4137 31771 RESIDUE 1 C TIP
4288 TIP4138 31774 RESIDUE 1 C TIP
4289 TIP4139 31777 RESIDUE 1 C TIP
4290 TIP4140 31780 RESIDUE 1 C TIP
4291 TIP4141 31783 RESIDUE 1 C TIP
4292 TIP4142 31786 RESIDUE 1 C TIP
4293 TIP4143 31789 RESIDUE 1 C TIP
4294 TIP4144 31792 RESIDUE 1 C TIP
4295 TIP4145 31795 RESIDUE 1 C TIP
4296 TIP4146 31798 RESIDUE 1 C TIP
4297 TIP4147 31801 RESIDUE 1 C TIP
4298 TIP4148 31804 RESIDUE 1 C TIP
4299 TIP4149 31807 RESIDUE 1 C TIP
4300 TIP4150 31810 RESIDUE 1 C TIP
4301 TIP4151 31813 RESIDUE 1 C TIP
4302 TIP4152 31816 RESIDUE 1 C TIP
4303 TIP4153 31819 RESIDUE 1 C TIP
4304 TIP4154 31822 RESIDUE 1 C TIP
4305 TIP4155 31825 RESIDUE 1 C TIP
4306 TIP4156 31828 RESIDUE 1 C TIP
4307 TIP4157 31831 RESIDUE 1 C TIP
4308 TIP4158 31834 RESIDUE 1 C TIP
4309 TIP4159 31837 RESIDUE 1 C TIP
4310 TIP4160 31840 RESIDUE 1 C TIP
4311 TIP4161 31843 RESIDUE 1 C TIP
4312 TIP4162 31846 RESIDUE 1 C TIP
4313 TIP4163 31849 RESIDUE 1 C TIP
4314 TIP4164 31852 RESIDUE 1 C TIP
4315 TIP4165 31855 RESIDUE 1 C TIP
4316 TIP4166 31858 RESIDUE 1 C TIP
4317 TIP4167 31861 RESIDUE 1 C TIP
4318 TIP4168 31864 RESIDUE 1 C TIP
4319 TIP4169 31867 RESIDUE 1 C TIP
4320 TIP4170 31870 RESIDUE 1 C TIP
4321 TIP4171 31873 RESIDUE 1 C TIP
4322 TIP4172 31876 RESIDUE 1 C TIP
4323 TIP4173 31879 RESIDUE 1 C TIP
4324 TIP4174 31882 RESIDUE 1 C TIP
4325 TIP4175 31885 RESIDUE 1 C TIP
4326 TIP4176 31888 RESIDUE 1 C TIP
4327 TIP4177 31891 RESIDUE 1 C TIP
4328 TIP4178 31894 RESIDUE 1 C TIP
4329 TIP4179 31897 RESIDUE 1 C TIP
4330 TIP4180 31900 RESIDUE 1 C TIP
4331 TIP4181 31903 RESIDUE 1 C TIP
4332 TIP4182 31906 RESIDUE 1 C TIP
4333 TIP4183 31909 RESIDUE 1 C TIP
4334 TIP4184 31912 RESIDUE 1 C TIP
4335 TIP4185 31915 RESIDUE 1 C TIP
4336 TIP4186 31918 RESIDUE 1 C TIP
4337 TIP4187 31921 RESIDUE 1 C TIP
4338 TIP4188 31924 RESIDUE 1 C TIP
4339 TIP4189 31927 RESIDUE 1 C TIP
4340 TIP4190 31930 RESIDUE 1 C TIP
4341 TIP4191 31933 RESIDUE 1 C TIP
4342 TIP4192 31936 RESIDUE 1 C TIP
4343 TIP4193 31939 RESIDUE 1 C TIP
4344 TIP4194 31942 RESIDUE 1 C TIP
4345 TIP4195 31945 RESIDUE 1 C TIP
4346 TIP4196 31948 RESIDUE 1 C TIP
4347 TIP4197 31951 RESIDUE 1 C TIP
4348 TIP4198 31954 RESIDUE 1 C TIP
4349 TIP4199 31957 RESIDUE 1 C TIP
4350 TIP4200 31960 RESIDUE 1 C TIP
4351 TIP4201 31963 RESIDUE 1 C TIP
4352 TIP4202 31966 RESIDUE 1 C TIP
4353 TIP4203 31969 RESIDUE 1 C TIP
4354 TIP4204 31972 RESIDUE 1 C TIP
4355 TIP4205 31975 RESIDUE 1 C TIP
4356 TIP4206 31978 RESIDUE 1 C TIP
4357 TIP4207 31981 RESIDUE 1 C TIP
4358 TIP4208 31984 RESIDUE 1 C TIP
4359 TIP4209 31987 RESIDUE 1 C TIP
4360 TIP4210 31990 RESIDUE 1 C TIP
4361 TIP4211 31993 RESIDUE 1 C TIP
4362 TIP4212 31996 RESIDUE 1 C TIP
4363 TIP4213 31999 RESIDUE 1 C TIP
4364 TIP4214 32002 RESIDUE 1 C TIP
4365 TIP4215 32005 RESIDUE 1 C TIP
4366 TIP4216 32008 RESIDUE 1 C TIP
4367 TIP4217 32011 RESIDUE 1 C TIP
4368 TIP4218 32014 RESIDUE 1 C TIP
4369 TIP4219 32017 RESIDUE 1 C TIP
4370 TIP4220 32020 RESIDUE 1 C TIP
4371 TIP4221 32023 RESIDUE 1 C TIP
4372 TIP4222 32026 RESIDUE 1 C TIP
4373 TIP4223 32029 RESIDUE 1 C TIP
4374 TIP4224 32032 RESIDUE 1 C TIP
4375 TIP4225 32035 RESIDUE 1 C TIP
4376 TIP4226 32038 RESIDUE 1 C TIP
4377 TIP4227 32041 RESIDUE 1 C TIP
4378 TIP4228 32044 RESIDUE 1 C TIP
4379 TIP4229 32047 RESIDUE 1 C TIP
4380 TIP4230 32050 RESIDUE 1 C TIP
4381 TIP4231 32053 RESIDUE 1 C TIP
4382 TIP4232 32056 RESIDUE 1 C TIP
4383 TIP4233 32059 RESIDUE 1 C TIP
4384 TIP4234 32062 RESIDUE 1 C TIP
4385 TIP4235 32065 RESIDUE 1 C TIP
4386 TIP4236 32068 RESIDUE 1 C TIP
4387 TIP4237 32071 RESIDUE 1 C TIP
4388 TIP4238 32074 RESIDUE 1 C TIP
4389 TIP4239 32077 RESIDUE 1 C TIP
4390 TIP4240 32080 RESIDUE 1 C TIP
4391 TIP4241 32083 RESIDUE 1 C TIP
4392 TIP4242 32086 RESIDUE 1 C TIP
4393 TIP4243 32089 RESIDUE 1 C TIP
4394 TIP4244 32092 RESIDUE 1 C TIP
4395 TIP4245 32095 RESIDUE 1 C TIP
4396 TIP4246 32098 RESIDUE 1 C TIP
4397 TIP4247 32101 RESIDUE 1 C TIP
4398 TIP4248 32104 RESIDUE 1 C TIP
4399 TIP4249 32107 RESIDUE 1 C TIP
4400 TIP4250 32110 RESIDUE 1 C TIP
4401 TIP4251 32113 RESIDUE 1 C TIP
4402 TIP4252 32116 RESIDUE 1 C TIP
4403 TIP4253 32119 RESIDUE 1 C TIP
4404 TIP4254 32122 RESIDUE 1 C TIP
4405 TIP4255 32125 RESIDUE 1 C TIP
4406 TIP4256 32128 RESIDUE 1 C TIP
4407 TIP4257 32131 RESIDUE 1 C TIP
4408 TIP4258 32134 RESIDUE 1 C TIP
4409 TIP4259 32137 RESIDUE 1 C TIP
4410 TIP4260 32140 RESIDUE 1 C TIP
4411 TIP4261 32143 RESIDUE 1 C TIP
4412 TIP4262 32146 RESIDUE 1 C TIP
4413 TIP4263 32149 RESIDUE 1 C TIP
4414 TIP4264 32152 RESIDUE 1 C TIP
4415 TIP4265 32155 RESIDUE 1 C TIP
4416 TIP4266 32158 RESIDUE 1 C TIP
4417 TIP4267 32161 RESIDUE 1 C TIP
4418 TIP4268 32164 RESIDUE 1 C TIP
4419 TIP4269 32167 RESIDUE 1 C TIP
4420 TIP4270 32170 RESIDUE 1 C TIP
4421 TIP4271 32173 RESIDUE 1 C TIP
4422 TIP4272 32176 RESIDUE 1 C TIP
4423 TIP4273 32179 RESIDUE 1 C TIP
4424 TIP4274 32182 RESIDUE 1 C TIP
4425 TIP4275 32185 RESIDUE 1 C TIP
4426 TIP4276 32188 RESIDUE 1 C TIP
4427 TIP4277 32191 RESIDUE 1 C TIP
4428 TIP4278 32194 RESIDUE 1 C TIP
4429 TIP4279 32197 RESIDUE 1 C TIP
4430 TIP4280 32200 RESIDUE 1 C TIP
4431 TIP4281 32203 RESIDUE 1 C TIP
4432 TIP4282 32206 RESIDUE 1 C TIP
4433 TIP4283 32209 RESIDUE 1 C TIP
4434 TIP4284 32212 RESIDUE 1 C TIP
4435 TIP4285 32215 RESIDUE 1 C TIP
4436 TIP4286 32218 RESIDUE 1 C TIP
4437 TIP4287 32221 RESIDUE 1 C TIP
4438 TIP4288 32224 RESIDUE 1 C TIP
4439 TIP4289 32227 RESIDUE 1 C TIP
4440 TIP4290 32230 RESIDUE 1 C TIP
4441 TIP4291 32233 RESIDUE 1 C TIP
4442 TIP4292 32236 RESIDUE 1 C TIP
4443 TIP4293 32239 RESIDUE 1 C TIP
4444 TIP4294 32242 RESIDUE 1 C TIP
4445 TIP4295 32245 RESIDUE 1 C TIP
4446 TIP4296 32248 RESIDUE 1 C TIP
4447 TIP4297 32251 RESIDUE 1 C TIP
4448 TIP4298 32254 RESIDUE 1 C TIP
4449 TIP4299 32257 RESIDUE 1 C TIP
4450 TIP4300 32260 RESIDUE 1 C TIP
4451 TIP4301 32263 RESIDUE 1 C TIP
4452 TIP4302 32266 RESIDUE 1 C TIP
4453 TIP4303 32269 RESIDUE 1 C TIP
4454 TIP4304 32272 RESIDUE 1 C TIP
4455 TIP4305 32275 RESIDUE 1 C TIP
4456 TIP4306 32278 RESIDUE 1 C TIP
4457 TIP4307 32281 RESIDUE 1 C TIP
4458 TIP4308 32284 RESIDUE 1 C TIP
4459 TIP4309 32287 RESIDUE 1 C TIP
4460 TIP4310 32290 RESIDUE 1 C TIP
4461 TIP4311 32293 RESIDUE 1 C TIP
4462 TIP4312 32296 RESIDUE 1 C TIP
4463 TIP4313 32299 RESIDUE 1 C TIP
4464 TIP4314 32302 RESIDUE 1 C TIP
4465 TIP4315 32305 RESIDUE 1 C TIP
4466 TIP4316 32308 RESIDUE 1 C TIP
4467 TIP4317 32311 RESIDUE 1 C TIP
4468 TIP4318 32314 RESIDUE 1 C TIP
4469 TIP4319 32317 RESIDUE 1 C TIP
4470 TIP4320 32320 RESIDUE 1 C TIP
4471 TIP4321 32323 RESIDUE 1 C TIP
4472 TIP4322 32326 RESIDUE 1 C TIP
4473 TIP4323 32329 RESIDUE 1 C TIP
4474 TIP4324 32332 RESIDUE 1 C TIP
4475 TIP4325 32335 RESIDUE 1 C TIP
4476 TIP4326 32338 RESIDUE 1 C TIP
4477 TIP4327 32341 RESIDUE 1 C TIP
4478 TIP4328 32344 RESIDUE 1 C TIP
4479 TIP4329 32347 RESIDUE 1 C TIP
4480 TIP4330 32350 RESIDUE 1 C TIP
4481 TIP4331 32353 RESIDUE 1 C TIP
4482 TIP4332 32356 RESIDUE 1 C TIP
4483 TIP4333 32359 RESIDUE 1 C TIP
4484 TIP4334 32362 RESIDUE 1 C TIP
4485 TIP4335 32365 RESIDUE 1 C TIP
4486 TIP4336 32368 RESIDUE 1 C TIP
4487 TIP4337 32371 RESIDUE 1 C TIP
4488 TIP4338 32374 RESIDUE 1 C TIP
4489 TIP4339 32377 RESIDUE 1 C TIP
4490 TIP4340 32380 RESIDUE 1 C TIP
4491 TIP4341 32383 RESIDUE 1 C TIP
4492 TIP4342 32386 RESIDUE 1 C TIP
4493 TIP4343 32389 RESIDUE 1 C TIP
4494 TIP4344 32392 RESIDUE 1 C TIP
4495 TIP4345 32395 RESIDUE 1 C TIP
4496 TIP4346 32398 RESIDUE 1 C TIP
4497 TIP4347 32401 RESIDUE 1 C TIP
4498 TIP4348 32404 RESIDUE 1 C TIP
4499 TIP4349 32407 RESIDUE 1 C TIP
4500 TIP4350 32410 RESIDUE 1 C TIP
4501 TIP4351 32413 RESIDUE 1 C TIP
4502 TIP4352 32416 RESIDUE 1 C TIP
4503 TIP4353 32419 RESIDUE 1 C TIP
4504 TIP4354 32422 RESIDUE 1 C TIP
4505 TIP4355 32425 RESIDUE 1 C TIP
4506 TIP4356 32428 RESIDUE 1 C TIP
4507 TIP4357 32431 RESIDUE 1 C TIP
4508 TIP4358 32434 RESIDUE 1 C TIP
4509 TIP4359 32437 RESIDUE 1 C TIP
4510 TIP4360 32440 RESIDUE 1 C TIP
4511 TIP4361 32443 RESIDUE 1 C TIP
4512 TIP4362 32446 RESIDUE 1 C TIP
4513 TIP4363 32449 RESIDUE 1 C TIP
4514 TIP4364 32452 RESIDUE 1 C TIP
4515 TIP4365 32455 RESIDUE 1 C TIP
4516 TIP4366 32458 RESIDUE 1 C TIP
4517 TIP4367 32461 RESIDUE 1 C TIP
4518 TIP4368 32464 RESIDUE 1 C TIP
4519 TIP4369 32467 RESIDUE 1 C TIP
4520 TIP4370 32470 RESIDUE 1 C TIP
4521 TIP4371 32473 RESIDUE 1 C TIP
4522 TIP4372 32476 RESIDUE 1 C TIP
4523 TIP4373 32479 RESIDUE 1 C TIP
4524 TIP4374 32482 RESIDUE 1 C TIP
4525 TIP4375 32485 RESIDUE 1 C TIP
4526 TIP4376 32488 RESIDUE 1 C TIP
4527 TIP4377 32491 RESIDUE 1 C TIP
4528 TIP4378 32494 RESIDUE 1 C TIP
4529 TIP4379 32497 RESIDUE 1 C TIP
4530 TIP4380 32500 RESIDUE 1 C TIP
4531 TIP4381 32503 RESIDUE 1 C TIP
4532 TIP4382 32506 RESIDUE 1 C TIP
4533 TIP4383 32509 RESIDUE 1 C TIP
4534 TIP4384 32512 RESIDUE 1 C TIP
4535 TIP4385 32515 RESIDUE 1 C TIP
4536 TIP4386 32518 RESIDUE 1 C TIP
4537 TIP4387 32521 RESIDUE 1 C TIP
4538 TIP4388 32524 RESIDUE 1 C TIP
4539 TIP4389 32527 RESIDUE 1 C TIP
4540 TIP4390 32530 RESIDUE 1 C TIP
4541 TIP4391 32533 RESIDUE 1 C TIP
4542 TIP4392 32536 RESIDUE 1 C TIP
4543 TIP4393 32539 RESIDUE 1 C TIP
4544 TIP4394 32542 RESIDUE 1 C TIP
4545 TIP4395 32545 RESIDUE 1 C TIP
4546 TIP4396 32548 RESIDUE 1 C TIP
4547 TIP4397 32551 RESIDUE 1 C TIP
4548 TIP4398 32554 RESIDUE 1 C TIP
4549 TIP4399 32557 RESIDUE 1 C TIP
4550 TIP4400 32560 RESIDUE 1 C TIP
4551 TIP4401 32563 RESIDUE 1 C TIP
4552 TIP4402 32566 RESIDUE 1 C TIP
4553 TIP4403 32569 RESIDUE 1 C TIP
4554 TIP4404 32572 RESIDUE 1 C TIP
4555 TIP4405 32575 RESIDUE 1 C TIP
4556 TIP4406 32578 RESIDUE 1 C TIP
4557 TIP4407 32581 RESIDUE 1 C TIP
4558 TIP4408 32584 RESIDUE 1 C TIP
4559 TIP4409 32587 RESIDUE 1 C TIP
4560 TIP4410 32590 RESIDUE 1 C TIP
4561 TIP4411 32593 RESIDUE 1 C TIP
4562 TIP4412 32596 RESIDUE 1 C TIP
4563 TIP4413 32599 RESIDUE 1 C TIP
4564 TIP4414 32602 RESIDUE 1 C TIP
4565 TIP4415 32605 RESIDUE 1 C TIP
4566 TIP4416 32608 RESIDUE 1 C TIP
4567 TIP4417 32611 RESIDUE 1 C TIP
4568 TIP4418 32614 RESIDUE 1 C TIP
4569 TIP4419 32617 RESIDUE 1 C TIP
4570 TIP4420 32620 RESIDUE 1 C TIP
4571 TIP4421 32623 RESIDUE 1 C TIP
4572 TIP4422 32626 RESIDUE 1 C TIP
4573 TIP4423 32629 RESIDUE 1 C TIP
4574 TIP4424 32632 RESIDUE 1 C TIP
4575 TIP4425 32635 RESIDUE 1 C TIP
4576 TIP4426 32638 RESIDUE 1 C TIP
4577 TIP4427 32641 RESIDUE 1 C TIP
4578 TIP4428 32644 RESIDUE 1 C TIP
4579 TIP4429 32647 RESIDUE 1 C TIP
4580 TIP4430 32650 RESIDUE 1 C TIP
4581 TIP4431 32653 RESIDUE 1 C TIP
4582 TIP4432 32656 RESIDUE 1 C TIP
4583 TIP4433 32659 RESIDUE 1 C TIP
4584 TIP4434 32662 RESIDUE 1 C TIP
4585 TIP4435 32665 RESIDUE 1 C TIP
4586 TIP4436 32668 RESIDUE 1 C TIP
4587 TIP4437 32671 RESIDUE 1 C TIP
4588 TIP4438 32674 RESIDUE 1 C TIP
4589 TIP4439 32677 RESIDUE 1 C TIP
4590 TIP4440 32680 RESIDUE 1 C TIP
4591 TIP4441 32683 RESIDUE 1 C TIP
4592 TIP4442 32686 RESIDUE 1 C TIP
4593 TIP4443 32689 RESIDUE 1 C TIP
4594 TIP4444 32692 RESIDUE 1 C TIP
4595 TIP4445 32695 RESIDUE 1 C TIP
4596 TIP4446 32698 RESIDUE 1 C TIP
4597 TIP4447 32701 RESIDUE 1 C TIP
4598 TIP4448 32704 RESIDUE 1 C TIP
4599 TIP4449 32707 RESIDUE 1 C TIP
4600 TIP4450 32710 RESIDUE 1 C TIP
4601 TIP4451 32713 RESIDUE 1 C TIP
4602 TIP4452 32716 RESIDUE 1 C TIP
4603 TIP4453 32719 RESIDUE 1 C TIP
4604 TIP4454 32722 RESIDUE 1 C TIP
4605 TIP4455 32725 RESIDUE 1 C TIP
4606 TIP4456 32728 RESIDUE 1 C TIP
4607 TIP4457 32731 RESIDUE 1 C TIP
4608 TIP4458 32734 RESIDUE 1 C TIP
4609 TIP4459 32737 RESIDUE 1 C TIP
4610 TIP4460 32740 RESIDUE 1 C TIP
4611 TIP4461 32743 RESIDUE 1 C TIP
4612 TIP4462 32746 RESIDUE 1 C TIP
4613 TIP4463 32749 RESIDUE 1 C TIP
4614 TIP4464 32752 RESIDUE 1 C TIP
4615 TIP4465 32755 RESIDUE 1 C TIP
4616 TIP4466 32758 RESIDUE 1 C TIP
4617 TIP4467 32761 RESIDUE 1 C TIP
4618 TIP4468 32764 RESIDUE 1 C TIP
4619 TIP4469 32767 RESIDUE 1 C TIP
4620 TIP4470 32770 RESIDUE 1 C TIP
4621 TIP4471 32773 RESIDUE 1 C TIP
4622 TIP4472 32776 RESIDUE 1 C TIP
4623 TIP4473 32779 RESIDUE 1 C TIP
4624 TIP4474 32782 RESIDUE 1 C TIP
4625 TIP4475 32785 RESIDUE 1 C TIP
4626 TIP4476 32788 RESIDUE 1 C TIP
4627 TIP4477 32791 RESIDUE 1 C TIP
4628 TIP4478 32794 RESIDUE 1 C TIP
4629 TIP4479 32797 RESIDUE 1 C TIP
4630 TIP4480 32800 RESIDUE 1 C TIP
4631 TIP4481 32803 RESIDUE 1 C TIP
4632 TIP4482 32806 RESIDUE 1 C TIP
4633 TIP4483 32809 RESIDUE 1 C TIP
4634 TIP4484 32812 RESIDUE 1 C TIP
4635 TIP4485 32815 RESIDUE 1 C TIP
4636 TIP4486 32818 RESIDUE 1 C TIP
4637 TIP4487 32821 RESIDUE 1 C TIP
4638 TIP4488 32824 RESIDUE 1 C TIP
4639 TIP4489 32827 RESIDUE 1 C TIP
4640 TIP4490 32830 RESIDUE 1 C TIP
4641 TIP4491 32833 RESIDUE 1 C TIP
4642 TIP4492 32836 RESIDUE 1 C TIP
4643 TIP4493 32839 RESIDUE 1 C TIP
4644 TIP4494 32842 RESIDUE 1 C TIP
4645 TIP4495 32845 RESIDUE 1 C TIP
4646 TIP4496 32848 RESIDUE 1 C TIP
4647 TIP4497 32851 RESIDUE 1 C TIP
4648 TIP4498 32854 RESIDUE 1 C TIP
4649 TIP4499 32857 RESIDUE 1 C TIP
4650 TIP4500 32860 RESIDUE 1 C TIP
4651 TIP4501 32863 RESIDUE 1 C TIP
4652 TIP4502 32866 RESIDUE 1 C TIP
4653 TIP4503 32869 RESIDUE 1 C TIP
4654 TIP4504 32872 RESIDUE 1 C TIP
4655 TIP4505 32875 RESIDUE 1 C TIP
4656 TIP4506 32878 RESIDUE 1 C TIP
4657 TIP4507 32881 RESIDUE 1 C TIP
4658 TIP4508 32884 RESIDUE 1 C TIP
4659 TIP4509 32887 RESIDUE 1 C TIP
4660 TIP4510 32890 RESIDUE 1 C TIP
4661 TIP4511 32893 RESIDUE 1 C TIP
4662 TIP4512 32896 RESIDUE 1 C TIP
4663 TIP4513 32899 RESIDUE 1 C TIP
4664 TIP4514 32902 RESIDUE 1 C TIP
4665 TIP4515 32905 RESIDUE 1 C TIP
4666 TIP4516 32908 RESIDUE 1 C TIP
4667 TIP4517 32911 RESIDUE 1 C TIP
4668 TIP4518 32914 RESIDUE 1 C TIP
4669 TIP4519 32917 RESIDUE 1 C TIP
4670 TIP4520 32920 RESIDUE 1 C TIP
4671 TIP4521 32923 RESIDUE 1 C TIP
4672 TIP4522 32926 RESIDUE 1 C TIP
4673 TIP4523 32929 RESIDUE 1 C TIP
4674 TIP4524 32932 RESIDUE 1 C TIP
4675 TIP4525 32935 RESIDUE 1 C TIP
4676 TIP4526 32938 RESIDUE 1 C TIP
4677 TIP4527 32941 RESIDUE 1 C TIP
4678 TIP4528 32944 RESIDUE 1 C TIP
4679 TIP4529 32947 RESIDUE 1 C TIP
4680 TIP4530 32950 RESIDUE 1 C TIP
4681 TIP4531 32953 RESIDUE 1 C TIP
4682 TIP4532 32956 RESIDUE 1 C TIP
4683 TIP4533 32959 RESIDUE 1 C TIP
4684 TIP4534 32962 RESIDUE 1 C TIP
4685 TIP4535 32965 RESIDUE 1 C TIP
4686 TIP4536 32968 RESIDUE 1 C TIP
4687 TIP4537 32971 RESIDUE 1 C TIP
4688 TIP4538 32974 RESIDUE 1 C TIP
4689 TIP4539 32977 RESIDUE 1 C TIP
4690 TIP4540 32980 RESIDUE 1 C TIP
4691 TIP4541 32983 RESIDUE 1 C TIP
4692 TIP4542 32986 RESIDUE 1 C TIP
4693 TIP4543 32989 RESIDUE 1 C TIP
4694 TIP4544 32992 RESIDUE 1 C TIP
4695 TIP4545 32995 RESIDUE 1 C TIP
4696 TIP4546 32998 RESIDUE 1 C TIP
4697 TIP4547 33001 RESIDUE 1 C TIP
4698 TIP4548 33004 RESIDUE 1 C TIP
4699 TIP4549 33007 RESIDUE 1 C TIP
4700 TIP4550 33010 RESIDUE 1 C TIP
4701 TIP4551 33013 RESIDUE 1 C TIP
4702 TIP4552 33016 RESIDUE 1 C TIP
4703 TIP4553 33019 RESIDUE 1 C TIP
4704 TIP4554 33022 RESIDUE 1 C TIP
4705 TIP4555 33025 RESIDUE 1 C TIP
4706 TIP4556 33028 RESIDUE 1 C TIP
4707 TIP4557 33031 RESIDUE 1 C TIP
4708 TIP4558 33034 RESIDUE 1 C TIP
4709 TIP4559 33037 RESIDUE 1 C TIP
4710 TIP4560 33040 RESIDUE 1 C TIP
4711 TIP4561 33043 RESIDUE 1 C TIP
4712 TIP4562 33046 RESIDUE 1 C TIP
4713 TIP4563 33049 RESIDUE 1 C TIP
4714 TIP4564 33052 RESIDUE 1 C TIP
4715 TIP4565 33055 RESIDUE 1 C TIP
4716 TIP4566 33058 RESIDUE 1 C TIP
4717 TIP4567 33061 RESIDUE 1 C TIP
4718 TIP4568 33064 RESIDUE 1 C TIP
4719 TIP4569 33067 RESIDUE 1 C TIP
4720 TIP4570 33070 RESIDUE 1 C TIP
4721 TIP4571 33073 RESIDUE 1 C TIP
4722 TIP4572 33076 RESIDUE 1 C TIP
4723 TIP4573 33079 RESIDUE 1 C TIP
4724 TIP4574 33082 RESIDUE 1 C TIP
4725 TIP4575 33085 RESIDUE 1 C TIP
4726 TIP4576 33088 RESIDUE 1 C TIP
4727 TIP4577 33091 RESIDUE 1 C TIP
4728 TIP4578 33094 RESIDUE 1 C TIP
4729 TIP4579 33097 RESIDUE 1 C TIP
4730 TIP4580 33100 RESIDUE 1 C TIP
4731 TIP4581 33103 RESIDUE 1 C TIP
4732 TIP4582 33106 RESIDUE 1 C TIP
4733 TIP4583 33109 RESIDUE 1 C TIP
4734 TIP4584 33112 RESIDUE 1 C TIP
4735 TIP4585 33115 RESIDUE 1 C TIP
4736 TIP4586 33118 RESIDUE 1 C TIP
4737 TIP4587 33121 RESIDUE 1 C TIP
4738 TIP4588 33124 RESIDUE 1 C TIP
4739 TIP4589 33127 RESIDUE 1 C TIP
4740 TIP4590 33130 RESIDUE 1 C TIP
4741 TIP4591 33133 RESIDUE 1 C TIP
4742 TIP4592 33136 RESIDUE 1 C TIP
4743 TIP4593 33139 RESIDUE 1 C TIP
4744 TIP4594 33142 RESIDUE 1 C TIP
4745 TIP4595 33145 RESIDUE 1 C TIP
4746 TIP4596 33148 RESIDUE 1 C TIP
4747 TIP4597 33151 RESIDUE 1 C TIP
4748 TIP4598 33154 RESIDUE 1 C TIP
4749 TIP4599 33157 RESIDUE 1 C TIP
4750 TIP4600 33160 RESIDUE 1 C TIP
4751 TIP4601 33163 RESIDUE 1 C TIP
4752 TIP4602 33166 RESIDUE 1 C TIP
4753 TIP4603 33169 RESIDUE 1 C TIP
4754 TIP4604 33172 RESIDUE 1 C TIP
4755 TIP4605 33175 RESIDUE 1 C TIP
4756 TIP4606 33178 RESIDUE 1 C TIP
4757 TIP4607 33181 RESIDUE 1 C TIP
4758 TIP4608 33184 RESIDUE 1 C TIP
4759 TIP4609 33187 RESIDUE 1 C TIP
4760 TIP4610 33190 RESIDUE 1 C TIP
4761 TIP4611 33193 RESIDUE 1 C TIP
4762 TIP4612 33196 RESIDUE 1 C TIP
4763 TIP4613 33199 RESIDUE 1 C TIP
4764 TIP4614 33202 RESIDUE 1 C TIP
4765 TIP4615 33205 RESIDUE 1 C TIP
4766 TIP4616 33208 RESIDUE 1 C TIP
4767 TIP4617 33211 RESIDUE 1 C TIP
4768 TIP4618 33214 RESIDUE 1 C TIP
4769 TIP4619 33217 RESIDUE 1 C TIP
4770 TIP4620 33220 RESIDUE 1 C TIP
4771 TIP4621 33223 RESIDUE 1 C TIP
4772 TIP4622 33226 RESIDUE 1 C TIP
4773 TIP4623 33229 RESIDUE 1 C TIP
4774 TIP4624 33232 RESIDUE 1 C TIP
4775 TIP4625 33235 RESIDUE 1 C TIP
4776 TIP4626 33238 RESIDUE 1 C TIP
4777 TIP4627 33241 RESIDUE 1 C TIP
4778 TIP4628 33244 RESIDUE 1 C TIP
4779 TIP4629 33247 RESIDUE 1 C TIP
4780 TIP4630 33250 RESIDUE 1 C TIP
4781 TIP4631 33253 RESIDUE 1 C TIP
4782 TIP4632 33256 RESIDUE 1 C TIP
4783 TIP4633 33259 RESIDUE 1 C TIP
4784 TIP4634 33262 RESIDUE 1 C TIP
4785 TIP4635 33265 RESIDUE 1 C TIP
4786 TIP4636 33268 RESIDUE 1 C TIP
4787 TIP4637 33271 RESIDUE 1 C TIP
4788 TIP4638 33274 RESIDUE 1 C TIP
4789 TIP4639 33277 RESIDUE 1 C TIP
4790 TIP4640 33280 RESIDUE 1 C TIP
4791 TIP4641 33283 RESIDUE 1 C TIP
4792 TIP4642 33286 RESIDUE 1 C TIP
4793 TIP4643 33289 RESIDUE 1 C TIP
4794 TIP4644 33292 RESIDUE 1 C TIP
4795 TIP4645 33295 RESIDUE 1 C TIP
4796 TIP4646 33298 RESIDUE 1 C TIP
4797 TIP4647 33301 RESIDUE 1 C TIP
4798 TIP4648 33304 RESIDUE 1 C TIP
4799 TIP4649 33307 RESIDUE 1 C TIP
4800 TIP4650 33310 RESIDUE 1 C TIP
4801 TIP4651 33313 RESIDUE 1 C TIP
4802 TIP4652 33316 RESIDUE 1 C TIP
4803 TIP4653 33319 RESIDUE 1 C TIP
4804 TIP4654 33322 RESIDUE 1 C TIP
4805 TIP4655 33325 RESIDUE 1 C TIP
4806 TIP4656 33328 RESIDUE 1 C TIP
4807 TIP4657 33331 RESIDUE 1 C TIP
4808 TIP4658 33334 RESIDUE 1 C TIP
4809 TIP4659 33337 RESIDUE 1 C TIP
4810 TIP4660 33340 RESIDUE 1 C TIP
4811 TIP4661 33343 RESIDUE 1 C TIP
4812 TIP4662 33346 RESIDUE 1 C TIP
4813 TIP4663 33349 RESIDUE 1 C TIP
4814 TIP4664 33352 RESIDUE 1 C TIP
4815 TIP4665 33355 RESIDUE 1 C TIP
4816 TIP4666 33358 RESIDUE 1 C TIP
4817 TIP4667 33361 RESIDUE 1 C TIP
4818 TIP4668 33364 RESIDUE 1 C TIP
4819 TIP4669 33367 RESIDUE 1 C TIP
4820 TIP4670 33370 RESIDUE 1 C TIP
4821 TIP4671 33373 RESIDUE 1 C TIP
4822 TIP4672 33376 RESIDUE 1 C TIP
4823 TIP4673 33379 RESIDUE 1 C TIP
4824 TIP4674 33382 RESIDUE 1 C TIP
4825 TIP4675 33385 RESIDUE 1 C TIP
4826 TIP4676 33388 RESIDUE 1 C TIP
4827 TIP4677 33391 RESIDUE 1 C TIP
4828 TIP4678 33394 RESIDUE 1 C TIP
4829 TIP4679 33397 RESIDUE 1 C TIP
4830 TIP4680 33400 RESIDUE 1 C TIP
4831 TIP4681 33403 RESIDUE 1 C TIP
4832 TIP4682 33406 RESIDUE 1 C TIP
4833 TIP4683 33409 RESIDUE 1 C TIP
4834 TIP4684 33412 RESIDUE 1 C TIP
4835 TIP4685 33415 RESIDUE 1 C TIP
4836 TIP4686 33418 RESIDUE 1 C TIP
4837 TIP4687 33421 RESIDUE 1 C TIP
4838 TIP4688 33424 RESIDUE 1 C TIP
4839 TIP4689 33427 RESIDUE 1 C TIP
4840 TIP4690 33430 RESIDUE 1 C TIP
4841 TIP4691 33433 RESIDUE 1 C TIP
4842 TIP4692 33436 RESIDUE 1 C TIP
4843 TIP4693 33439 RESIDUE 1 C TIP
4844 TIP4694 33442 RESIDUE 1 C TIP
4845 TIP4695 33445 RESIDUE 1 C TIP
4846 TIP4696 33448 RESIDUE 1 C TIP
4847 TIP4697 33451 RESIDUE 1 C TIP
4848 TIP4698 33454 RESIDUE 1 C TIP
4849 TIP4699 33457 RESIDUE 1 C TIP
4850 TIP4700 33460 RESIDUE 1 C TIP
4851 TIP4701 33463 RESIDUE 1 C TIP
4852 TIP4702 33466 RESIDUE 1 C TIP
4853 TIP4703 33469 RESIDUE 1 C TIP
4854 TIP4704 33472 RESIDUE 1 C TIP
4855 TIP4705 33475 RESIDUE 1 C TIP
4856 TIP4706 33478 RESIDUE 1 C TIP
4857 TIP4707 33481 RESIDUE 1 C TIP
4858 TIP4708 33484 RESIDUE 1 C TIP
4859 TIP4709 33487 RESIDUE 1 C TIP
4860 TIP4710 33490 RESIDUE 1 C TIP
4861 TIP4711 33493 RESIDUE 1 C TIP
4862 TIP4712 33496 RESIDUE 1 C TIP
4863 TIP4713 33499 RESIDUE 1 C TIP
4864 TIP4714 33502 RESIDUE 1 C TIP
4865 TIP4715 33505 RESIDUE 1 C TIP
4866 TIP4716 33508 RESIDUE 1 C TIP
4867 TIP4717 33511 RESIDUE 1 C TIP
4868 TIP4718 33514 RESIDUE 1 C TIP
4869 TIP4719 33517 RESIDUE 1 C TIP
4870 TIP4720 33520 RESIDUE 1 C TIP
4871 TIP4721 33523 RESIDUE 1 C TIP
4872 TIP4722 33526 RESIDUE 1 C TIP
4873 TIP4723 33529 RESIDUE 1 C TIP
4874 TIP4724 33532 RESIDUE 1 C TIP
4875 TIP4725 33535 RESIDUE 1 C TIP
4876 TIP4726 33538 RESIDUE 1 C TIP
4877 TIP4727 33541 RESIDUE 1 C TIP
4878 TIP4728 33544 RESIDUE 1 C TIP
4879 TIP4729 33547 RESIDUE 1 C TIP
4880 TIP4730 33550 RESIDUE 1 C TIP
4881 TIP4731 33553 RESIDUE 1 C TIP
4882 TIP4732 33556 RESIDUE 1 C TIP
4883 TIP4733 33559 RESIDUE 1 C TIP
4884 TIP4734 33562 RESIDUE 1 C TIP
4885 TIP4735 33565 RESIDUE 1 C TIP
4886 TIP4736 33568 RESIDUE 1 C TIP
4887 TIP4737 33571 RESIDUE 1 C TIP
4888 TIP4738 33574 RESIDUE 1 C TIP
4889 TIP4739 33577 RESIDUE 1 C TIP
4890 TIP4740 33580 RESIDUE 1 C TIP
4891 TIP4741 33583 RESIDUE 1 C TIP
4892 TIP4742 33586 RESIDUE 1 C TIP
4893 TIP4743 33589 RESIDUE 1 C TIP
4894 TIP4744 33592 RESIDUE 1 C TIP
4895 TIP4745 33595 RESIDUE 1 C TIP
4896 TIP4746 33598 RESIDUE 1 C TIP
4897 TIP4747 33601 RESIDUE 1 C TIP
4898 TIP4748 33604 RESIDUE 1 C TIP
4899 TIP4749 33607 RESIDUE 1 C TIP
4900 TIP4750 33610 RESIDUE 1 C TIP
4901 TIP4751 33613 RESIDUE 1 C TIP
4902 TIP4752 33616 RESIDUE 1 C TIP
4903 TIP4753 33619 RESIDUE 1 C TIP
4904 TIP4754 33622 RESIDUE 1 C TIP
4905 TIP4755 33625 RESIDUE 1 C TIP
4906 TIP4756 33628 RESIDUE 1 C TIP
4907 TIP4757 33631 RESIDUE 1 C TIP
4908 TIP4758 33634 RESIDUE 1 C TIP
4909 TIP4759 33637 RESIDUE 1 C TIP
4910 TIP4760 33640 RESIDUE 1 C TIP
4911 TIP4761 33643 RESIDUE 1 C TIP
4912 TIP4762 33646 RESIDUE 1 C TIP
4913 TIP4763 33649 RESIDUE 1 C TIP
4914 TIP4764 33652 RESIDUE 1 C TIP
4915 TIP4765 33655 RESIDUE 1 C TIP
4916 TIP4766 33658 RESIDUE 1 C TIP
4917 TIP4767 33661 RESIDUE 1 C TIP
4918 TIP4768 33664 RESIDUE 1 C TIP
4919 TIP4769 33667 RESIDUE 1 C TIP
4920 TIP4770 33670 RESIDUE 1 C TIP
4921 TIP4771 33673 RESIDUE 1 C TIP
4922 TIP4772 33676 RESIDUE 1 C TIP
4923 TIP4773 33679 RESIDUE 1 C TIP
4924 TIP4774 33682 RESIDUE 1 C TIP
4925 TIP4775 33685 RESIDUE 1 C TIP
4926 TIP4776 33688 RESIDUE 1 C TIP
4927 TIP4777 33691 RESIDUE 1 C TIP
4928 TIP4778 33694 RESIDUE 1 C TIP
4929 TIP4779 33697 RESIDUE 1 C TIP
4930 TIP4780 33700 RESIDUE 1 C TIP
4931 TIP4781 33703 RESIDUE 1 C TIP
4932 TIP4782 33706 RESIDUE 1 C TIP
4933 TIP4783 33709 RESIDUE 1 C TIP
4934 TIP4784 33712 RESIDUE 1 C TIP
4935 TIP4785 33715 RESIDUE 1 C TIP
4936 TIP4786 33718 RESIDUE 1 C TIP
4937 TIP4787 33721 RESIDUE 1 C TIP
4938 TIP4788 33724 RESIDUE 1 C TIP
4939 TIP4789 33727 RESIDUE 1 C TIP
4940 TIP4790 33730 RESIDUE 1 C TIP
4941 TIP4791 33733 RESIDUE 1 C TIP
4942 TIP4792 33736 RESIDUE 1 C TIP
4943 TIP4793 33739 RESIDUE 1 C TIP
4944 TIP4794 33742 RESIDUE 1 C TIP
4945 TIP4795 33745 RESIDUE 1 C TIP
4946 TIP4796 33748 RESIDUE 1 C TIP
4947 TIP4797 33751 RESIDUE 1 C TIP
4948 TIP4798 33754 RESIDUE 1 C TIP
4949 TIP4799 33757 RESIDUE 1 C TIP
4950 TIP4800 33760 RESIDUE 1 C TIP
4951 TIP4801 33763 RESIDUE 1 C TIP
4952 TIP4802 33766 RESIDUE 1 C TIP
4953 TIP4803 33769 RESIDUE 1 C TIP
4954 TIP4804 33772 RESIDUE 1 C TIP
4955 TIP4805 33775 RESIDUE 1 C TIP
4956 TIP4806 33778 RESIDUE 1 C TIP
4957 TIP4807 33781 RESIDUE 1 C TIP
4958 TIP4808 33784 RESIDUE 1 C TIP
4959 TIP4809 33787 RESIDUE 1 C TIP
4960 TIP4810 33790 RESIDUE 1 C TIP
4961 TIP4811 33793 RESIDUE 1 C TIP
4962 TIP4812 33796 RESIDUE 1 C TIP
4963 TIP4813 33799 RESIDUE 1 C TIP
4964 TIP4814 33802 RESIDUE 1 C TIP
4965 TIP4815 33805 RESIDUE 1 C TIP
4966 TIP4816 33808 RESIDUE 1 C TIP
4967 TIP4817 33811 RESIDUE 1 C TIP
4968 TIP4818 33814 RESIDUE 1 C TIP
4969 TIP4819 33817 RESIDUE 1 C TIP
4970 TIP4820 33820 RESIDUE 1 C TIP
4971 TIP4821 33823 RESIDUE 1 C TIP
4972 TIP4822 33826 RESIDUE 1 C TIP
4973 TIP4823 33829 RESIDUE 1 C TIP
4974 TIP4824 33832 RESIDUE 1 C TIP
4975 TIP4825 33835 RESIDUE 1 C TIP
4976 TIP4826 33838 RESIDUE 1 C TIP
4977 TIP4827 33841 RESIDUE 1 C TIP
4978 TIP4828 33844 RESIDUE 1 C TIP
4979 TIP4829 33847 RESIDUE 1 C TIP
4980 TIP4830 33850 RESIDUE 1 C TIP
4981 TIP4831 33853 RESIDUE 1 C TIP
4982 TIP4832 33856 RESIDUE 1 C TIP
4983 TIP4833 33859 RESIDUE 1 C TIP
4984 TIP4834 33862 RESIDUE 1 C TIP
4985 TIP4835 33865 RESIDUE 1 C TIP
4986 TIP4836 33868 RESIDUE 1 C TIP
4987 TIP4837 33871 RESIDUE 1 C TIP
4988 TIP4838 33874 RESIDUE 1 C TIP
4989 TIP4839 33877 RESIDUE 1 C TIP
4990 TIP4840 33880 RESIDUE 1 C TIP
4991 TIP4841 33883 RESIDUE 1 C TIP
4992 TIP4842 33886 RESIDUE 1 C TIP
4993 TIP4843 33889 RESIDUE 1 C TIP
4994 TIP4844 33892 RESIDUE 1 C TIP
4995 TIP4845 33895 RESIDUE 1 C TIP
4996 TIP4846 33898 RESIDUE 1 C TIP
4997 TIP4847 33901 RESIDUE 1 C TIP
4998 TIP4848 33904 RESIDUE 1 C TIP
4999 TIP4849 33907 RESIDUE 1 C TIP
5000 TIP4850 33910 RESIDUE 1 C TIP
5001 TIP4851 33913 RESIDUE 1 C TIP
5002 TIP4852 33916 RESIDUE 1 C TIP
5003 TIP4853 33919 RESIDUE 1 C TIP
5004 TIP4854 33922 RESIDUE 1 C TIP
5005 TIP4855 33925 RESIDUE 1 C TIP
5006 TIP4856 33928 RESIDUE 1 C TIP
5007 TIP4857 33931 RESIDUE 1 C TIP
5008 TIP4858 33934 RESIDUE 1 C TIP
5009 TIP4859 33937 RESIDUE 1 C TIP
5010 TIP4860 33940 RESIDUE 1 C TIP
5011 TIP4861 33943 RESIDUE 1 C TIP
5012 TIP4862 33946 RESIDUE 1 C TIP
5013 TIP4863 33949 RESIDUE 1 C TIP
5014 TIP4864 33952 RESIDUE 1 C TIP
5015 TIP4865 33955 RESIDUE 1 C TIP
5016 TIP4866 33958 RESIDUE 1 C TIP
5017 TIP4867 33961 RESIDUE 1 C TIP
5018 TIP4868 33964 RESIDUE 1 C TIP
5019 TIP4869 33967 RESIDUE 1 C TIP
5020 TIP4870 33970 RESIDUE 1 C TIP
5021 TIP4871 33973 RESIDUE 1 C TIP
5022 TIP4872 33976 RESIDUE 1 C TIP
5023 TIP4873 33979 RESIDUE 1 C TIP
5024 TIP4874 33982 RESIDUE 1 C TIP
5025 TIP4875 33985 RESIDUE 1 C TIP
5026 TIP4876 33988 RESIDUE 1 C TIP
5027 TIP4877 33991 RESIDUE 1 C TIP
5028 TIP4878 33994 RESIDUE 1 C TIP
5029 TIP4879 33997 RESIDUE 1 C TIP
5030 TIP4880 34000 RESIDUE 1 C TIP
5031 TIP4881 34003 RESIDUE 1 C TIP
5032 TIP4882 34006 RESIDUE 1 C TIP
5033 TIP4883 34009 RESIDUE 1 C TIP
5034 TIP4884 34012 RESIDUE 1 C TIP
5035 TIP4885 34015 RESIDUE 1 C TIP
5036 TIP4886 34018 RESIDUE 1 C TIP
5037 TIP4887 34021 RESIDUE 1 C TIP
5038 TIP4888 34024 RESIDUE 1 C TIP
5039 TIP4889 34027 RESIDUE 1 C TIP
5040 TIP4890 34030 RESIDUE 1 C TIP
5041 TIP4891 34033 RESIDUE 1 C TIP
5042 TIP4892 34036 RESIDUE 1 C TIP
5043 TIP4893 34039 RESIDUE 1 C TIP
5044 TIP4894 34042 RESIDUE 1 C TIP
5045 TIP4895 34045 RESIDUE 1 C TIP
5046 TIP4896 34048 RESIDUE 1 C TIP
5047 TIP4897 34051 RESIDUE 1 C TIP
5048 TIP4898 34054 RESIDUE 1 C TIP
5049 TIP4899 34057 RESIDUE 1 C TIP
5050 TIP4900 34060 RESIDUE 1 C TIP
5051 TIP4901 34063 RESIDUE 1 C TIP
5052 TIP4902 34066 RESIDUE 1 C TIP
5053 TIP4903 34069 RESIDUE 1 C TIP
5054 TIP4904 34072 RESIDUE 1 C TIP
5055 TIP4905 34075 RESIDUE 1 C TIP
5056 TIP4906 34078 RESIDUE 1 C TIP
5057 TIP4907 34081 RESIDUE 1 C TIP
5058 TIP4908 34084 RESIDUE 1 C TIP
5059 TIP4909 34087 RESIDUE 1 C TIP
5060 TIP4910 34090 RESIDUE 1 C TIP
5061 TIP4911 34093 RESIDUE 1 C TIP
5062 TIP4912 34096 RESIDUE 1 C TIP
5063 TIP4913 34099 RESIDUE 1 C TIP
5064 TIP4914 34102 RESIDUE 1 C TIP
5065 TIP4915 34105 RESIDUE 1 C TIP
5066 TIP4916 34108 RESIDUE 1 C TIP
5067 TIP4917 34111 RESIDUE 1 C TIP
5068 TIP4918 34114 RESIDUE 1 C TIP
5069 TIP4919 34117 RESIDUE 1 C TIP
5070 TIP4920 34120 RESIDUE 1 C TIP
5071 TIP4921 34123 RESIDUE 1 C TIP
5072 TIP4922 34126 RESIDUE 1 C TIP
5073 TIP4923 34129 RESIDUE 1 C TIP
5074 TIP4924 34132 RESIDUE 1 C TIP
5075 TIP4925 34135 RESIDUE 1 C TIP
5076 TIP4926 34138 RESIDUE 1 C TIP
5077 TIP4927 34141 RESIDUE 1 C TIP
5078 TIP4928 34144 RESIDUE 1 C TIP
5079 TIP4929 34147 RESIDUE 1 C TIP
5080 TIP4930 34150 RESIDUE 1 C TIP
5081 TIP4931 34153 RESIDUE 1 C TIP
5082 TIP4932 34156 RESIDUE 1 C TIP
5083 TIP4933 34159 RESIDUE 1 C TIP
5084 TIP4934 34162 RESIDUE 1 C TIP
5085 TIP4935 34165 RESIDUE 1 C TIP
5086 TIP4936 34168 RESIDUE 1 C TIP
5087 TIP4937 34171 RESIDUE 1 C TIP
5088 TIP4938 34174 RESIDUE 1 C TIP
5089 TIP4939 34177 RESIDUE 1 C TIP
5090 TIP4940 34180 RESIDUE 1 C TIP
5091 TIP4941 34183 RESIDUE 1 C TIP
5092 TIP4942 34186 RESIDUE 1 C TIP
5093 TIP4943 34189 RESIDUE 1 C TIP
5094 TIP4944 34192 RESIDUE 1 C TIP
5095 TIP4945 34195 RESIDUE 1 C TIP
5096 TIP4946 34198 RESIDUE 1 C TIP
5097 TIP4947 34201 RESIDUE 1 C TIP
5098 TIP4948 34204 RESIDUE 1 C TIP
5099 TIP4949 34207 RESIDUE 1 C TIP
5100 TIP4950 34210 RESIDUE 1 C TIP
5101 TIP4951 34213 RESIDUE 1 C TIP
5102 TIP4952 34216 RESIDUE 1 C TIP
5103 TIP4953 34219 RESIDUE 1 C TIP
5104 TIP4954 34222 RESIDUE 1 C TIP
5105 TIP4955 34225 RESIDUE 1 C TIP
5106 TIP4956 34228 RESIDUE 1 C TIP
5107 TIP4957 34231 RESIDUE 1 C TIP
5108 TIP4958 34234 RESIDUE 1 C TIP
5109 TIP4959 34237 RESIDUE 1 C TIP
5110 TIP4960 34240 RESIDUE 1 C TIP
5111 TIP4961 34243 RESIDUE 1 C TIP
5112 TIP4962 34246 RESIDUE 1 C TIP
5113 TIP4963 34249 RESIDUE 1 C TIP
5114 TIP4964 34252 RESIDUE 1 C TIP
5115 TIP4965 34255 RESIDUE 1 C TIP
5116 TIP4966 34258 RESIDUE 1 C TIP
5117 TIP4967 34261 RESIDUE 1 C TIP
5118 TIP4968 34264 RESIDUE 1 C TIP
5119 TIP4969 34267 RESIDUE 1 C TIP
5120 TIP4970 34270 RESIDUE 1 C TIP
5121 TIP4971 34273 RESIDUE 1 C TIP
5122 TIP4972 34276 RESIDUE 1 C TIP
5123 TIP4973 34279 RESIDUE 1 C TIP
5124 TIP4974 34282 RESIDUE 1 C TIP
5125 TIP4975 34285 RESIDUE 1 C TIP
5126 TIP4976 34288 RESIDUE 1 C TIP
5127 TIP4977 34291 RESIDUE 1 C TIP
5128 TIP4978 34294 RESIDUE 1 C TIP
5129 TIP4979 34297 RESIDUE 1 C TIP
5130 TIP4980 34300 RESIDUE 1 C TIP
5131 TIP4981 34303 RESIDUE 1 C TIP
5132 TIP4982 34306 RESIDUE 1 C TIP
5133 TIP4983 34309 RESIDUE 1 C TIP
5134 TIP4984 34312 RESIDUE 1 C TIP
5135 TIP4985 34315 RESIDUE 1 C TIP
5136 TIP4986 34318 RESIDUE 1 C TIP
5137 TIP4987 34321 RESIDUE 1 C TIP
5138 TIP4988 34324 RESIDUE 1 C TIP
5139 TIP4989 34327 RESIDUE 1 C TIP
5140 TIP4990 34330 RESIDUE 1 C TIP
5141 TIP4991 34333 RESIDUE 1 C TIP
5142 TIP4992 34336 RESIDUE 1 C TIP
5143 TIP4993 34339 RESIDUE 1 C TIP
5144 TIP4994 34342 RESIDUE 1 C TIP
5145 TIP4995 34345 RESIDUE 1 C TIP
5146 TIP4996 34348 RESIDUE 1 C TIP
5147 TIP4997 34351 RESIDUE 1 C TIP
5148 TIP4998 34354 RESIDUE 1 C TIP
5149 TIP4999 34357 RESIDUE 1 C TIP
5150 TIP5000 34360 RESIDUE 1 C TIP
5151 TIP5001 34363 RESIDUE 1 C TIP
5152 TIP5002 34366 RESIDUE 1 C TIP
5153 TIP5003 34369 RESIDUE 1 C TIP
5154 TIP5004 34372 RESIDUE 1 C TIP
5155 TIP5005 34375 RESIDUE 1 C TIP
5156 TIP5006 34378 RESIDUE 1 C TIP
5157 TIP5007 34381 RESIDUE 1 C TIP
5158 TIP5008 34384 RESIDUE 1 C TIP
5159 TIP5009 34387 RESIDUE 1 C TIP
5160 TIP5010 34390 RESIDUE 1 C TIP
5161 TIP5011 34393 RESIDUE 1 C TIP
5162 TIP5012 34396 RESIDUE 1 C TIP
5163 TIP5013 34399 RESIDUE 1 C TIP
5164 TIP5014 34402 RESIDUE 1 C TIP
5165 TIP5015 34405 RESIDUE 1 C TIP
5166 TIP5016 34408 RESIDUE 1 C TIP
5167 TIP5017 34411 RESIDUE 1 C TIP
5168 TIP5018 34414 RESIDUE 1 C TIP
5169 TIP5019 34417 RESIDUE 1 C TIP
5170 TIP5020 34420 RESIDUE 1 C TIP
5171 TIP5021 34423 RESIDUE 1 C TIP
5172 TIP5022 34426 RESIDUE 1 C TIP
5173 TIP5023 34429 RESIDUE 1 C TIP
5174 TIP5024 34432 RESIDUE 1 C TIP
5175 TIP5025 34435 RESIDUE 1 C TIP
5176 TIP5026 34438 RESIDUE 1 C TIP
5177 TIP5027 34441 RESIDUE 1 C TIP
5178 TIP5028 34444 RESIDUE 1 C TIP
5179 TIP5029 34447 RESIDUE 1 C TIP
5180 TIP5030 34450 RESIDUE 1 C TIP
5181 TIP5031 34453 RESIDUE 1 C TIP
5182 TIP5032 34456 RESIDUE 1 C TIP
5183 TIP5033 34459 RESIDUE 1 C TIP
5184 TIP5034 34462 RESIDUE 1 C TIP
5185 TIP5035 34465 RESIDUE 1 C TIP
5186 TIP5036 34468 RESIDUE 1 C TIP
5187 TIP5037 34471 RESIDUE 1 C TIP
5188 TIP5038 34474 RESIDUE 1 C TIP
5189 TIP5039 34477 RESIDUE 1 C TIP
5190 TIP5040 34480 RESIDUE 1 C TIP
5191 TIP5041 34483 RESIDUE 1 C TIP
5192 TIP5042 34486 RESIDUE 1 C TIP
5193 TIP5043 34489 RESIDUE 1 C TIP
5194 TIP5044 34492 RESIDUE 1 C TIP
5195 TIP5045 34495 RESIDUE 1 C TIP
5196 TIP5046 34498 RESIDUE 1 C TIP
5197 TIP5047 34501 RESIDUE 1 C TIP
5198 TIP5048 34504 RESIDUE 1 C TIP
5199 TIP5049 34507 RESIDUE 1 C TIP
5200 TIP5050 34510 RESIDUE 1 C TIP
5201 TIP5051 34513 RESIDUE 1 C TIP
5202 TIP5052 34516 RESIDUE 1 C TIP
5203 TIP5053 34519 RESIDUE 1 C TIP
5204 TIP5054 34522 RESIDUE 1 C TIP
5205 TIP5055 34525 RESIDUE 1 C TIP
5206 TIP5056 34528 RESIDUE 1 C TIP
5207 TIP5057 34531 RESIDUE 1 C TIP
5208 TIP5058 34534 RESIDUE 1 C TIP
5209 TIP5059 34537 RESIDUE 1 C TIP
5210 TIP5060 34540 RESIDUE 1 C TIP
5211 TIP5061 34543 RESIDUE 1 C TIP
5212 TIP5062 34546 RESIDUE 1 C TIP
5213 TIP5063 34549 RESIDUE 1 C TIP
5214 TIP5064 34552 RESIDUE 1 C TIP
5215 TIP5065 34555 RESIDUE 1 C TIP
5216 TIP5066 34558 RESIDUE 1 C TIP
5217 TIP5067 34561 RESIDUE 1 C TIP
5218 TIP5068 34564 RESIDUE 1 C TIP
5219 TIP5069 34567 RESIDUE 1 C TIP
5220 TIP5070 34570 RESIDUE 1 C TIP
5221 TIP5071 34573 RESIDUE 1 C TIP
5222 TIP5072 34576 RESIDUE 1 C TIP
5223 TIP5073 34579 RESIDUE 1 C TIP
5224 TIP5074 34582 RESIDUE 1 C TIP
5225 TIP5075 34585 RESIDUE 1 C TIP
5226 TIP5076 34588 RESIDUE 1 C TIP
5227 TIP5077 34591 RESIDUE 1 C TIP
5228 TIP5078 34594 RESIDUE 1 C TIP
5229 TIP5079 34597 RESIDUE 1 C TIP
5230 TIP5080 34600 RESIDUE 1 C TIP
5231 TIP5081 34603 RESIDUE 1 C TIP
5232 TIP5082 34606 RESIDUE 1 C TIP
5233 TIP5083 34609 RESIDUE 1 C TIP
5234 TIP5084 34612 RESIDUE 1 C TIP
5235 TIP5085 34615 RESIDUE 1 C TIP
5236 TIP5086 34618 RESIDUE 1 C TIP
5237 TIP5087 34621 RESIDUE 1 C TIP
5238 TIP5088 34624 RESIDUE 1 C TIP
5239 TIP5089 34627 RESIDUE 1 C TIP
5240 TIP5090 34630 RESIDUE 1 C TIP
5241 TIP5091 34633 RESIDUE 1 C TIP
5242 TIP5092 34636 RESIDUE 1 C TIP
5243 TIP5093 34639 RESIDUE 1 C TIP
5244 TIP5094 34642 RESIDUE 1 C TIP
5245 TIP5095 34645 RESIDUE 1 C TIP
5246 TIP5096 34648 RESIDUE 1 C TIP
5247 TIP5097 34651 RESIDUE 1 C TIP
5248 TIP5098 34654 RESIDUE 1 C TIP
5249 TIP5099 34657 RESIDUE 1 C TIP
5250 TIP5100 34660 RESIDUE 1 C TIP
5251 TIP5101 34663 RESIDUE 1 C TIP
5252 TIP5102 34666 RESIDUE 1 C TIP
5253 TIP5103 34669 RESIDUE 1 C TIP
5254 TIP5104 34672 RESIDUE 1 C TIP
5255 TIP5105 34675 RESIDUE 1 C TIP
5256 TIP5106 34678 RESIDUE 1 C TIP
5257 TIP5107 34681 RESIDUE 1 C TIP
5258 TIP5108 34684 RESIDUE 1 C TIP
5259 TIP5109 34687 RESIDUE 1 C TIP
5260 TIP5110 34690 RESIDUE 1 C TIP
5261 TIP5111 34693 RESIDUE 1 C TIP
5262 TIP5112 34696 RESIDUE 1 C TIP
5263 TIP5113 34699 RESIDUE 1 C TIP
5264 TIP5114 34702 RESIDUE 1 C TIP
5265 TIP5115 34705 RESIDUE 1 C TIP
5266 TIP5116 34708 RESIDUE 1 C TIP
5267 TIP5117 34711 RESIDUE 1 C TIP
5268 TIP5118 34714 RESIDUE 1 C TIP
5269 TIP5119 34717 RESIDUE 1 C TIP
5270 TIP5120 34720 RESIDUE 1 C TIP
5271 TIP5121 34723 RESIDUE 1 C TIP
5272 TIP5122 34726 RESIDUE 1 C TIP
5273 TIP5123 34729 RESIDUE 1 C TIP
5274 TIP5124 34732 RESIDUE 1 C TIP
5275 TIP5125 34735 RESIDUE 1 C TIP
5276 TIP5126 34738 RESIDUE 1 C TIP
5277 TIP5127 34741 RESIDUE 1 C TIP
5278 TIP5128 34744 RESIDUE 1 C TIP
5279 TIP5129 34747 RESIDUE 1 C TIP
5280 TIP5130 34750 RESIDUE 1 C TIP
5281 TIP5131 34753 RESIDUE 1 C TIP
5282 TIP5132 34756 RESIDUE 1 C TIP
5283 TIP5133 34759 RESIDUE 1 C TIP
5284 TIP5134 34762 RESIDUE 1 C TIP
5285 TIP5135 34765 RESIDUE 1 C TIP
5286 TIP5136 34768 RESIDUE 1 C TIP
5287 TIP5137 34771 RESIDUE 1 C TIP
5288 TIP5138 34774 RESIDUE 1 C TIP
5289 TIP5139 34777 RESIDUE 1 C TIP
5290 TIP5140 34780 RESIDUE 1 C TIP
5291 TIP5141 34783 RESIDUE 1 C TIP
5292 TIP5142 34786 RESIDUE 1 C TIP
5293 TIP5143 34789 RESIDUE 1 C TIP
5294 TIP5144 34792 RESIDUE 1 C TIP
5295 TIP5145 34795 RESIDUE 1 C TIP
5296 TIP5146 34798 RESIDUE 1 C TIP
5297 TIP5147 34801 RESIDUE 1 C TIP
5298 TIP5148 34804 RESIDUE 1 C TIP
5299 TIP5149 34807 RESIDUE 1 C TIP
5300 TIP5150 34810 RESIDUE 1 C TIP
5301 TIP5151 34813 RESIDUE 1 C TIP
5302 TIP5152 34816 RESIDUE 1 C TIP
5303 TIP5153 34819 RESIDUE 1 C TIP
5304 TIP5154 34822 RESIDUE 1 C TIP
5305 TIP5155 34825 RESIDUE 1 C TIP
5306 TIP5156 34828 RESIDUE 1 C TIP
5307 TIP5157 34831 RESIDUE 1 C TIP
5308 TIP5158 34834 RESIDUE 1 C TIP
5309 TIP5159 34837 RESIDUE 1 C TIP
5310 TIP5160 34840 RESIDUE 1 C TIP
5311 TIP5161 34843 RESIDUE 1 C TIP
5312 TIP5162 34846 RESIDUE 1 C TIP
5313 TIP5163 34849 RESIDUE 1 C TIP
5314 TIP5164 34852 RESIDUE 1 C TIP
5315 TIP5165 34855 RESIDUE 1 C TIP
5316 TIP5166 34858 RESIDUE 1 C TIP
5317 TIP5167 34861 RESIDUE 1 C TIP
5318 TIP5168 34864 RESIDUE 1 C TIP
5319 TIP5169 34867 RESIDUE 1 C TIP
5320 TIP5170 34870 RESIDUE 1 C TIP
5321 TIP5171 34873 RESIDUE 1 C TIP
5322 TIP5172 34876 RESIDUE 1 C TIP
5323 TIP5173 34879 RESIDUE 1 C TIP
5324 TIP5174 34882 RESIDUE 1 C TIP
5325 TIP5175 34885 RESIDUE 1 C TIP
5326 TIP5176 34888 RESIDUE 1 C TIP
5327 TIP5177 34891 RESIDUE 1 C TIP
5328 TIP5178 34894 RESIDUE 1 C TIP
5329 TIP5179 34897 RESIDUE 1 C TIP
5330 TIP5180 34900 RESIDUE 1 C TIP
5331 TIP5181 34903 RESIDUE 1 C TIP
5332 TIP5182 34906 RESIDUE 1 C TIP
5333 TIP5183 34909 RESIDUE 1 C TIP
5334 TIP5184 34912 RESIDUE 1 C TIP
5335 TIP5185 34915 RESIDUE 1 C TIP
5336 TIP5186 34918 RESIDUE 1 C TIP
5337 TIP5187 34921 RESIDUE 1 C TIP
5338 TIP5188 34924 RESIDUE 1 C TIP
5339 TIP5189 34927 RESIDUE 1 C TIP
5340 TIP5190 34930 RESIDUE 1 C TIP
5341 TIP5191 34933 RESIDUE 1 C TIP
5342 TIP5192 34936 RESIDUE 1 C TIP
5343 TIP5193 34939 RESIDUE 1 C TIP
5344 TIP5194 34942 RESIDUE 1 C TIP
5345 TIP5195 34945 RESIDUE 1 C TIP
5346 TIP5196 34948 RESIDUE 1 C TIP
5347 TIP5197 34951 RESIDUE 1 C TIP
5348 TIP5198 34954 RESIDUE 1 C TIP
5349 TIP5199 34957 RESIDUE 1 C TIP
5350 TIP5200 34960 RESIDUE 1 C TIP
5351 TIP5201 34963 RESIDUE 1 C TIP
5352 TIP5202 34966 RESIDUE 1 C TIP
5353 TIP5203 34969 RESIDUE 1 C TIP
5354 TIP5204 34972 RESIDUE 1 C TIP
5355 TIP5205 34975 RESIDUE 1 C TIP
5356 TIP5206 34978 RESIDUE 1 C TIP
5357 TIP5207 34981 RESIDUE 1 C TIP
5358 TIP5208 34984 RESIDUE 1 C TIP
5359 TIP5209 34987 RESIDUE 1 C TIP
5360 TIP5210 34990 RESIDUE 1 C TIP
5361 TIP5211 34993 RESIDUE 1 C TIP
5362 TIP5212 34996 RESIDUE 1 C TIP
5363 TIP5213 34999 RESIDUE 1 C TIP
5364 TIP5214 35002 RESIDUE 1 C TIP
5365 TIP5215 35005 RESIDUE 1 C TIP
5366 TIP5216 35008 RESIDUE 1 C TIP
5367 TIP5217 35011 RESIDUE 1 C TIP
5368 TIP5218 35014 RESIDUE 1 C TIP
5369 TIP5219 35017 RESIDUE 1 C TIP
5370 TIP5220 35020 RESIDUE 1 C TIP
5371 TIP5221 35023 RESIDUE 1 C TIP
5372 TIP5222 35026 RESIDUE 1 C TIP
5373 TIP5223 35029 RESIDUE 1 C TIP
5374 TIP5224 35032 RESIDUE 1 C TIP
5375 TIP5225 35035 RESIDUE 1 C TIP
5376 TIP5226 35038 RESIDUE 1 C TIP
5377 TIP5227 35041 RESIDUE 1 C TIP
5378 TIP5228 35044 RESIDUE 1 C TIP
5379 TIP5229 35047 RESIDUE 1 C TIP
5380 TIP5230 35050 RESIDUE 1 C TIP
5381 TIP5231 35053 RESIDUE 1 C TIP
5382 TIP5232 35056 RESIDUE 1 C TIP
5383 TIP5233 35059 RESIDUE 1 C TIP
5384 TIP5234 35062 RESIDUE 1 C TIP
5385 TIP5235 35065 RESIDUE 1 C TIP
5386 TIP5236 35068 RESIDUE 1 C TIP
5387 TIP5237 35071 RESIDUE 1 C TIP
5388 TIP5238 35074 RESIDUE 1 C TIP
5389 TIP5239 35077 RESIDUE 1 C TIP
5390 TIP5240 35080 RESIDUE 1 C TIP
5391 TIP5241 35083 RESIDUE 1 C TIP
5392 TIP5242 35086 RESIDUE 1 C TIP
5393 TIP5243 35089 RESIDUE 1 C TIP
5394 TIP5244 35092 RESIDUE 1 C TIP
5395 TIP5245 35095 RESIDUE 1 C TIP
5396 TIP5246 35098 RESIDUE 1 C TIP
5397 TIP5247 35101 RESIDUE 1 C TIP
5398 TIP5248 35104 RESIDUE 1 C TIP
5399 TIP5249 35107 RESIDUE 1 C TIP
5400 TIP5250 35110 RESIDUE 1 C TIP
5401 TIP5251 35113 RESIDUE 1 C TIP
5402 TIP5252 35116 RESIDUE 1 C TIP
5403 TIP5253 35119 RESIDUE 1 C TIP
5404 TIP5254 35122 RESIDUE 1 C TIP
5405 TIP5255 35125 RESIDUE 1 C TIP
5406 TIP5256 35128 RESIDUE 1 C TIP
5407 TIP5257 35131 RESIDUE 1 C TIP
5408 TIP5258 35134 RESIDUE 1 C TIP
5409 TIP5259 35137 RESIDUE 1 C TIP
5410 TIP5260 35140 RESIDUE 1 C TIP
5411 TIP5261 35143 RESIDUE 1 C TIP
5412 TIP5262 35146 RESIDUE 1 C TIP
5413 TIP5263 35149 RESIDUE 1 C TIP
5414 TIP5264 35152 RESIDUE 1 C TIP
5415 TIP5265 35155 RESIDUE 1 C TIP
5416 TIP5266 35158 RESIDUE 1 C TIP
5417 TIP5267 35161 RESIDUE 1 C TIP
5418 TIP5268 35164 RESIDUE 1 C TIP
5419 TIP5269 35167 RESIDUE 1 C TIP
5420 TIP5270 35170 RESIDUE 1 C TIP
5421 TIP5271 35173 RESIDUE 1 C TIP
5422 TIP5272 35176 RESIDUE 1 C TIP
5423 TIP5273 35179 RESIDUE 1 C TIP
5424 TIP5274 35182 RESIDUE 1 C TIP
5425 TIP5275 35185 RESIDUE 1 C TIP
5426 TIP5276 35188 RESIDUE 1 C TIP
5427 TIP5277 35191 RESIDUE 1 C TIP
5428 TIP5278 35194 RESIDUE 1 C TIP
5429 TIP5279 35197 RESIDUE 1 C TIP
5430 TIP5280 35200 RESIDUE 1 C TIP
5431 TIP5281 35203 RESIDUE 1 C TIP
5432 TIP5282 35206 RESIDUE 1 C TIP
5433 TIP5283 35209 RESIDUE 1 C TIP
5434 TIP5284 35212 RESIDUE 1 C TIP
5435 TIP5285 35215 RESIDUE 1 C TIP
5436 TIP5286 35218 RESIDUE 1 C TIP
5437 TIP5287 35221 RESIDUE 1 C TIP
5438 TIP5288 35224 RESIDUE 1 C TIP
5439 TIP5289 35227 RESIDUE 1 C TIP
5440 TIP5290 35230 RESIDUE 1 C TIP
5441 TIP5291 35233 RESIDUE 1 C TIP
5442 TIP5292 35236 RESIDUE 1 C TIP
5443 TIP5293 35239 RESIDUE 1 C TIP
5444 TIP5294 35242 RESIDUE 1 C TIP
5445 TIP5295 35245 RESIDUE 1 C TIP
5446 TIP5296 35248 RESIDUE 1 C TIP
5447 TIP5297 35251 RESIDUE 1 C TIP
5448 TIP5298 35254 RESIDUE 1 C TIP
5449 TIP5299 35257 RESIDUE 1 C TIP
5450 TIP5300 35260 RESIDUE 1 C TIP
5451 TIP5301 35263 RESIDUE 1 C TIP
5452 TIP5302 35266 RESIDUE 1 C TIP
5453 TIP5303 35269 RESIDUE 1 C TIP
5454 TIP5304 35272 RESIDUE 1 C TIP
5455 TIP5305 35275 RESIDUE 1 C TIP
5456 TIP5306 35278 RESIDUE 1 C TIP
5457 TIP5307 35281 RESIDUE 1 C TIP
5458 TIP5308 35284 RESIDUE 1 C TIP
5459 TIP5309 35287 RESIDUE 1 C TIP
5460 TIP5310 35290 RESIDUE 1 C TIP
5461 TIP5311 35293 RESIDUE 1 C TIP
5462 TIP5312 35296 RESIDUE 1 C TIP
5463 TIP5313 35299 RESIDUE 1 C TIP
5464 TIP5314 35302 RESIDUE 1 C TIP
5465 TIP5315 35305 RESIDUE 1 C TIP
5466 TIP5316 35308 RESIDUE 1 C TIP
5467 TIP5317 35311 RESIDUE 1 C TIP
5468 TIP5318 35314 RESIDUE 1 C TIP
5469 TIP5319 35317 RESIDUE 1 C TIP
5470 TIP5320 35320 RESIDUE 1 C TIP
5471 TIP5321 35323 RESIDUE 1 C TIP
5472 TIP5322 35326 RESIDUE 1 C TIP
5473 TIP5323 35329 RESIDUE 1 C TIP
5474 TIP5324 35332 RESIDUE 1 C TIP
5475 TIP5325 35335 RESIDUE 1 C TIP
5476 TIP5326 35338 RESIDUE 1 C TIP
5477 TIP5327 35341 RESIDUE 1 C TIP
5478 TIP5328 35344 RESIDUE 1 C TIP
5479 TIP5329 35347 RESIDUE 1 C TIP
5480 TIP5330 35350 RESIDUE 1 C TIP
5481 TIP5331 35353 RESIDUE 1 C TIP
5482 TIP5332 35356 RESIDUE 1 C TIP
5483 TIP5333 35359 RESIDUE 1 C TIP
5484 TIP5334 35362 RESIDUE 1 C TIP
5485 TIP5335 35365 RESIDUE 1 C TIP
5486 TIP5336 35368 RESIDUE 1 C TIP
5487 TIP5337 35371 RESIDUE 1 C TIP
5488 TIP5338 35374 RESIDUE 1 C TIP
5489 TIP5339 35377 RESIDUE 1 C TIP
5490 TIP5340 35380 RESIDUE 1 C TIP
5491 TIP5341 35383 RESIDUE 1 C TIP
5492 TIP5342 35386 RESIDUE 1 C TIP
5493 TIP5343 35389 RESIDUE 1 C TIP
5494 TIP5344 35392 RESIDUE 1 C TIP
5495 TIP5345 35395 RESIDUE 1 C TIP
5496 TIP5346 35398 RESIDUE 1 C TIP
5497 TIP5347 35401 RESIDUE 1 C TIP
5498 TIP5348 35404 RESIDUE 1 C TIP
5499 TIP5349 35407 RESIDUE 1 C TIP
5500 TIP5350 35410 RESIDUE 1 C TIP
5501 TIP5351 35413 RESIDUE 1 C TIP
5502 TIP5352 35416 RESIDUE 1 C TIP
5503 TIP5353 35419 RESIDUE 1 C TIP
5504 TIP5354 35422 RESIDUE 1 C TIP
5505 TIP5355 35425 RESIDUE 1 C TIP
5506 TIP5356 35428 RESIDUE 1 C TIP
5507 TIP5357 35431 RESIDUE 1 C TIP
5508 TIP5358 35434 RESIDUE 1 C TIP
5509 TIP5359 35437 RESIDUE 1 C TIP
5510 TIP5360 35440 RESIDUE 1 C TIP
5511 TIP5361 35443 RESIDUE 1 C TIP
5512 TIP5362 35446 RESIDUE 1 C TIP
5513 TIP5363 35449 RESIDUE 1 C TIP
5514 TIP5364 35452 RESIDUE 1 C TIP
5515 TIP5365 35455 RESIDUE 1 C TIP
5516 TIP5366 35458 RESIDUE 1 C TIP
5517 TIP5367 35461 RESIDUE 1 C TIP
5518 TIP5368 35464 RESIDUE 1 C TIP
5519 TIP5369 35467 RESIDUE 1 C TIP
5520 TIP5370 35470 RESIDUE 1 C TIP
5521 TIP5371 35473 RESIDUE 1 C TIP
5522 TIP5372 35476 RESIDUE 1 C TIP
5523 TIP5373 35479 RESIDUE 1 C TIP
5524 TIP5374 35482 RESIDUE 1 C TIP
5525 TIP5375 35485 RESIDUE 1 C TIP
5526 TIP5376 35488 RESIDUE 1 C TIP
5527 TIP5377 35491 RESIDUE 1 C TIP
5528 TIP5378 35494 RESIDUE 1 C TIP
5529 TIP5379 35497 RESIDUE 1 C TIP
5530 TIP5380 35500 RESIDUE 1 C TIP
5531 TIP5381 35503 RESIDUE 1 C TIP
5532 TIP5382 35506 RESIDUE 1 C TIP
5533 TIP5383 35509 RESIDUE 1 C TIP
5534 TIP5384 35512 RESIDUE 1 C TIP
5535 TIP5385 35515 RESIDUE 1 C TIP
5536 TIP5386 35518 RESIDUE 1 C TIP
5537 TIP5387 35521 RESIDUE 1 C TIP
5538 TIP5388 35524 RESIDUE 1 C TIP
5539 TIP5389 35527 RESIDUE 1 C TIP
5540 TIP5390 35530 RESIDUE 1 C TIP
5541 TIP5391 35533 RESIDUE 1 C TIP
5542 TIP5392 35536 RESIDUE 1 C TIP
5543 TIP5393 35539 RESIDUE 1 C TIP
5544 TIP5394 35542 RESIDUE 1 C TIP
5545 TIP5395 35545 RESIDUE 1 C TIP
5546 TIP5396 35548 RESIDUE 1 C TIP
5547 TIP5397 35551 RESIDUE 1 C TIP
5548 TIP5398 35554 RESIDUE 1 C TIP
5549 TIP5399 35557 RESIDUE 1 C TIP
5550 TIP5400 35560 RESIDUE 1 C TIP
5551 TIP5401 35563 RESIDUE 1 C TIP
5552 TIP5402 35566 RESIDUE 1 C TIP
5553 TIP5403 35569 RESIDUE 1 C TIP
5554 TIP5404 35572 RESIDUE 1 C TIP
5555 TIP5405 35575 RESIDUE 1 C TIP
5556 TIP5406 35578 RESIDUE 1 C TIP
5557 TIP5407 35581 RESIDUE 1 C TIP
5558 TIP5408 35584 RESIDUE 1 C TIP
5559 TIP5409 35587 RESIDUE 1 C TIP
5560 TIP5410 35590 RESIDUE 1 C TIP
5561 TIP5411 35593 RESIDUE 1 C TIP
5562 TIP5412 35596 RESIDUE 1 C TIP
5563 TIP5413 35599 RESIDUE 1 C TIP
5564 TIP5414 35602 RESIDUE 1 C TIP
5565 TIP5415 35605 RESIDUE 1 C TIP
5566 TIP5416 35608 RESIDUE 1 C TIP
5567 TIP5417 35611 RESIDUE 1 C TIP
5568 TIP5418 35614 RESIDUE 1 C TIP
5569 TIP5419 35617 RESIDUE 1 C TIP
5570 TIP5420 35620 RESIDUE 1 C TIP
5571 TIP5421 35623 RESIDUE 1 C TIP
5572 TIP5422 35626 RESIDUE 1 C TIP
5573 TIP5423 35629 RESIDUE 1 C TIP
5574 TIP5424 35632 RESIDUE 1 C TIP
5575 TIP5425 35635 RESIDUE 1 C TIP
5576 TIP5426 35638 RESIDUE 1 C TIP
5577 TIP5427 35641 RESIDUE 1 C TIP
5578 TIP5428 35644 RESIDUE 1 C TIP
5579 TIP5429 35647 RESIDUE 1 C TIP
5580 TIP5430 35650 RESIDUE 1 C TIP
5581 TIP5431 35653 RESIDUE 1 C TIP
5582 TIP5432 35656 RESIDUE 1 C TIP
5583 TIP5433 35659 RESIDUE 1 C TIP
5584 TIP5434 35662 RESIDUE 1 C TIP
5585 TIP5435 35665 RESIDUE 1 C TIP
5586 TIP5436 35668 RESIDUE 1 C TIP
5587 TIP5437 35671 RESIDUE 1 C TIP
5588 TIP5438 35674 RESIDUE 1 C TIP
5589 TIP5439 35677 RESIDUE 1 C TIP
5590 TIP5440 35680 RESIDUE 1 C TIP
5591 TIP5441 35683 RESIDUE 1 C TIP
5592 TIP5442 35686 RESIDUE 1 C TIP
5593 TIP5443 35689 RESIDUE 1 C TIP
5594 TIP5444 35692 RESIDUE 1 C TIP
5595 TIP5445 35695 RESIDUE 1 C TIP
5596 TIP5446 35698 RESIDUE 1 C TIP
5597 TIP5447 35701 RESIDUE 1 C TIP
5598 TIP5448 35704 RESIDUE 1 C TIP
5599 TIP5449 35707 RESIDUE 1 C TIP
5600 TIP5450 35710 RESIDUE 1 C TIP
5601 TIP5451 35713 RESIDUE 1 C TIP
5602 TIP5452 35716 RESIDUE 1 C TIP
5603 TIP5453 35719 RESIDUE 1 C TIP
5604 TIP5454 35722 RESIDUE 1 C TIP
5605 TIP5455 35725 RESIDUE 1 C TIP
5606 TIP5456 35728 RESIDUE 1 C TIP
5607 TIP5457 35731 RESIDUE 1 C TIP
5608 TIP5458 35734 RESIDUE 1 C TIP
5609 TIP5459 35737 RESIDUE 1 C TIP
5610 TIP5460 35740 RESIDUE 1 C TIP
5611 TIP5461 35743 RESIDUE 1 C TIP
5612 TIP5462 35746 RESIDUE 1 C TIP
5613 TIP5463 35749 RESIDUE 1 C TIP
5614 TIP5464 35752 RESIDUE 1 C TIP
5615 TIP5465 35755 RESIDUE 1 C TIP
5616 TIP5466 35758 RESIDUE 1 C TIP
5617 TIP5467 35761 RESIDUE 1 C TIP
5618 TIP5468 35764 RESIDUE 1 C TIP
5619 TIP5469 35767 RESIDUE 1 C TIP
5620 TIP5470 35770 RESIDUE 1 C TIP
5621 TIP5471 35773 RESIDUE 1 C TIP
5622 TIP5472 35776 RESIDUE 1 C TIP
5623 TIP5473 35779 RESIDUE 1 C TIP
5624 TIP5474 35782 RESIDUE 1 C TIP
5625 TIP5475 35785 RESIDUE 1 C TIP
5626 TIP5476 35788 RESIDUE 1 C TIP
5627 TIP5477 35791 RESIDUE 1 C TIP
5628 TIP5478 35794 RESIDUE 1 C TIP
5629 TIP5479 35797 RESIDUE 1 C TIP
5630 TIP5480 35800 RESIDUE 1 C TIP
5631 TIP5481 35803 RESIDUE 1 C TIP
5632 TIP5482 35806 RESIDUE 1 C TIP
5633 TIP5483 35809 RESIDUE 1 C TIP
5634 TIP5484 35812 RESIDUE 1 C TIP
5635 TIP5485 35815 RESIDUE 1 C TIP
5636 TIP5486 35818 RESIDUE 1 C TIP
5637 TIP5487 35821 RESIDUE 1 C TIP
5638 TIP5488 35824 RESIDUE 1 C TIP
5639 TIP5489 35827 RESIDUE 1 C TIP
5640 TIP5490 35830 RESIDUE 1 C TIP
5641 TIP5491 35833 RESIDUE 1 C TIP
5642 TIP5492 35836 RESIDUE 1 C TIP
5643 TIP5493 35839 RESIDUE 1 C TIP
5644 TIP5494 35842 RESIDUE 1 C TIP
5645 TIP5495 35845 RESIDUE 1 C TIP
5646 TIP5496 35848 RESIDUE 1 C TIP
5647 TIP5497 35851 RESIDUE 1 C TIP
5648 TIP5498 35854 RESIDUE 1 C TIP
5649 TIP5499 35857 RESIDUE 1 C TIP
5650 TIP5500 35860 RESIDUE 1 C TIP
5651 TIP5501 35863 RESIDUE 1 C TIP
5652 TIP5502 35866 RESIDUE 1 C TIP
5653 TIP5503 35869 RESIDUE 1 C TIP
5654 TIP5504 35872 RESIDUE 1 C TIP
5655 TIP5505 35875 RESIDUE 1 C TIP
5656 TIP5506 35878 RESIDUE 1 C TIP
5657 TIP5507 35881 RESIDUE 1 C TIP
5658 TIP5508 35884 RESIDUE 1 C TIP
5659 TIP5509 35887 RESIDUE 1 C TIP
5660 TIP5510 35890 RESIDUE 1 C TIP
5661 TIP5511 35893 RESIDUE 1 C TIP
5662 TIP5512 35896 RESIDUE 1 C TIP
5663 TIP5513 35899 RESIDUE 1 C TIP
5664 TIP5514 35902 RESIDUE 1 C TIP
5665 TIP5515 35905 RESIDUE 1 C TIP
5666 TIP5516 35908 RESIDUE 1 C TIP
5667 TIP5517 35911 RESIDUE 1 C TIP
5668 TIP5518 35914 RESIDUE 1 C TIP
5669 TIP5519 35917 RESIDUE 1 C TIP
5670 TIP5520 35920 RESIDUE 1 C TIP
5671 TIP5521 35923 RESIDUE 1 C TIP
5672 TIP5522 35926 RESIDUE 1 C TIP
5673 TIP5523 35929 RESIDUE 1 C TIP
5674 TIP5524 35932 RESIDUE 1 C TIP
5675 TIP5525 35935 RESIDUE 1 C TIP
5676 TIP5526 35938 RESIDUE 1 C TIP
5677 TIP5527 35941 RESIDUE 1 C TIP
5678 TIP5528 35944 RESIDUE 1 C TIP
5679 TIP5529 35947 RESIDUE 1 C TIP
5680 TIP5530 35950 RESIDUE 1 C TIP
5681 TIP5531 35953 RESIDUE 1 C TIP
5682 TIP5532 35956 RESIDUE 1 C TIP
5683 TIP5533 35959 RESIDUE 1 C TIP
5684 TIP5534 35962 RESIDUE 1 C TIP
5685 TIP5535 35965 RESIDUE 1 C TIP
5686 TIP5536 35968 RESIDUE 1 C TIP
5687 TIP5537 35971 RESIDUE 1 C TIP
5688 TIP5538 35974 RESIDUE 1 C TIP
5689 TIP5539 35977 RESIDUE 1 C TIP
5690 TIP5540 35980 RESIDUE 1 C TIP
5691 TIP5541 35983 RESIDUE 1 C TIP
5692 TIP5542 35986 RESIDUE 1 C TIP
5693 TIP5543 35989 RESIDUE 1 C TIP
5694 TIP5544 35992 RESIDUE 1 C TIP
5695 TIP5545 35995 RESIDUE 1 C TIP
5696 TIP5546 35998 RESIDUE 1 C TIP
5697 TIP5547 36001 RESIDUE 1 C TIP
5698 TIP5548 36004 RESIDUE 1 C TIP
5699 TIP5549 36007 RESIDUE 1 C TIP
5700 TIP5550 36010 RESIDUE 1 C TIP
5701 TIP5551 36013 RESIDUE 1 C TIP
5702 TIP5552 36016 RESIDUE 1 C TIP
5703 TIP5553 36019 RESIDUE 1 C TIP
5704 TIP5554 36022 RESIDUE 1 C TIP
5705 TIP5555 36025 RESIDUE 1 C TIP
5706 TIP5556 36028 RESIDUE 1 C TIP
5707 TIP5557 36031 RESIDUE 1 C TIP
5708 TIP5558 36034 RESIDUE 1 C TIP
5709 TIP5559 36037 RESIDUE 1 C TIP
5710 TIP5560 36040 RESIDUE 1 C TIP
5711 TIP5561 36043 RESIDUE 1 C TIP
5712 TIP5562 36046 RESIDUE 1 C TIP
5713 TIP5563 36049 RESIDUE 1 C TIP
5714 TIP5564 36052 RESIDUE 1 C TIP
5715 TIP5565 36055 RESIDUE 1 C TIP
5716 TIP5566 36058 RESIDUE 1 C TIP
5717 TIP5567 36061 RESIDUE 1 C TIP
5718 TIP5568 36064 RESIDUE 1 C TIP
5719 TIP5569 36067 RESIDUE 1 C TIP
5720 TIP5570 36070 RESIDUE 1 C TIP
5721 TIP5571 36073 RESIDUE 1 C TIP
5722 TIP5572 36076 RESIDUE 1 C TIP
5723 TIP5573 36079 RESIDUE 1 C TIP
5724 TIP5574 36082 RESIDUE 1 C TIP
5725 TIP5575 36085 RESIDUE 1 C TIP
5726 TIP5576 36088 RESIDUE 1 C TIP
5727 TIP5577 36091 RESIDUE 1 C TIP
5728 TIP5578 36094 RESIDUE 1 C TIP
5729 TIP5579 36097 RESIDUE 1 C TIP
5730 TIP5580 36100 RESIDUE 1 C TIP
5731 TIP5581 36103 RESIDUE 1 C TIP
5732 TIP5582 36106 RESIDUE 1 C TIP
5733 TIP5583 36109 RESIDUE 1 C TIP
5734 TIP5584 36112 RESIDUE 1 C TIP
5735 TIP5585 36115 RESIDUE 1 C TIP
5736 TIP5586 36118 RESIDUE 1 C TIP
5737 TIP5587 36121 RESIDUE 1 C TIP
5738 TIP5588 36124 RESIDUE 1 C TIP
5739 TIP5589 36127 RESIDUE 1 C TIP
5740 TIP5590 36130 RESIDUE 1 C TIP
5741 TIP5591 36133 RESIDUE 1 C TIP
5742 TIP5592 36136 RESIDUE 1 C TIP
5743 TIP5593 36139 RESIDUE 1 C TIP
5744 TIP5594 36142 RESIDUE 1 C TIP
5745 TIP5595 36145 RESIDUE 1 C TIP
5746 TIP5596 36148 RESIDUE 1 C TIP
5747 TIP5597 36151 RESIDUE 1 C TIP
5748 TIP5598 36154 RESIDUE 1 C TIP
5749 TIP5599 36157 RESIDUE 1 C TIP
5750 TIP5600 36160 RESIDUE 1 C TIP
5751 TIP5601 36163 RESIDUE 1 C TIP
5752 TIP5602 36166 RESIDUE 1 C TIP
5753 TIP5603 36169 RESIDUE 1 C TIP
5754 TIP5604 36172 RESIDUE 1 C TIP
5755 TIP5605 36175 RESIDUE 1 C TIP
5756 TIP5606 36178 RESIDUE 1 C TIP
5757 TIP5607 36181 RESIDUE 1 C TIP
5758 TIP5608 36184 RESIDUE 1 C TIP
5759 TIP5609 36187 RESIDUE 1 C TIP
5760 TIP5610 36190 RESIDUE 1 C TIP
5761 TIP5611 36193 RESIDUE 1 C TIP
5762 TIP5612 36196 RESIDUE 1 C TIP
5763 TIP5613 36199 RESIDUE 1 C TIP
5764 TIP5614 36202 RESIDUE 1 C TIP
5765 TIP5615 36205 RESIDUE 1 C TIP
5766 TIP5616 36208 RESIDUE 1 C TIP
5767 TIP5617 36211 RESIDUE 1 C TIP
5768 TIP5618 36214 RESIDUE 1 C TIP
5769 TIP5619 36217 RESIDUE 1 C TIP
5770 TIP5620 36220 RESIDUE 1 C TIP
5771 TIP5621 36223 RESIDUE 1 C TIP
5772 TIP5622 36226 RESIDUE 1 C TIP
5773 TIP5623 36229 RESIDUE 1 C TIP
5774 TIP5624 36232 RESIDUE 1 C TIP
5775 TIP5625 36235 RESIDUE 1 C TIP
5776 TIP5626 36238 RESIDUE 1 C TIP
5777 TIP5627 36241 RESIDUE 1 C TIP
5778 TIP5628 36244 RESIDUE 1 C TIP
5779 TIP5629 36247 RESIDUE 1 C TIP
5780 TIP5630 36250 RESIDUE 1 C TIP
5781 TIP5631 36253 RESIDUE 1 C TIP
5782 TIP5632 36256 RESIDUE 1 C TIP
5783 TIP5633 36259 RESIDUE 1 C TIP
5784 TIP5634 36262 RESIDUE 1 C TIP
5785 TIP5635 36265 RESIDUE 1 C TIP
5786 TIP5636 36268 RESIDUE 1 C TIP
5787 TIP5637 36271 RESIDUE 1 C TIP
5788 TIP5638 36274 RESIDUE 1 C TIP
5789 TIP5639 36277 RESIDUE 1 C TIP
5790 TIP5640 36280 RESIDUE 1 C TIP
5791 TIP5641 36283 RESIDUE 1 C TIP
5792 TIP5642 36286 RESIDUE 1 C TIP
5793 TIP5643 36289 RESIDUE 1 C TIP
5794 TIP5644 36292 RESIDUE 1 C TIP
5795 TIP5645 36295 RESIDUE 1 C TIP
5796 TIP5646 36298 RESIDUE 1 C TIP
5797 TIP5647 36301 RESIDUE 1 C TIP
5798 TIP5648 36304 RESIDUE 1 C TIP
5799 TIP5649 36307 RESIDUE 1 C TIP
5800 TIP5650 36310 RESIDUE 1 C TIP
5801 TIP5651 36313 RESIDUE 1 C TIP
5802 TIP5652 36316 RESIDUE 1 C TIP
5803 TIP5653 36319 RESIDUE 1 C TIP
5804 TIP5654 36322 RESIDUE 1 C TIP
5805 TIP5655 36325 RESIDUE 1 C TIP
5806 TIP5656 36328 RESIDUE 1 C TIP
5807 TIP5657 36331 RESIDUE 1 C TIP
5808 TIP5658 36334 RESIDUE 1 C TIP
5809 TIP5659 36337 RESIDUE 1 C TIP
5810 TIP5660 36340 RESIDUE 1 C TIP
5811 TIP5661 36343 RESIDUE 1 C TIP
5812 TIP5662 36346 RESIDUE 1 C TIP
5813 TIP5663 36349 RESIDUE 1 C TIP
5814 TIP5664 36352 RESIDUE 1 C TIP
5815 TIP5665 36355 RESIDUE 1 C TIP
5816 TIP5666 36358 RESIDUE 1 C TIP
5817 TIP5667 36361 RESIDUE 1 C TIP
5818 TIP5668 36364 RESIDUE 1 C TIP
5819 TIP5669 36367 RESIDUE 1 C TIP
5820 TIP5670 36370 RESIDUE 1 C TIP
5821 TIP5671 36373 RESIDUE 1 C TIP
5822 TIP5672 36376 RESIDUE 1 C TIP
5823 TIP5673 36379 RESIDUE 1 C TIP
5824 TIP5674 36382 RESIDUE 1 C TIP
5825 TIP5675 36385 RESIDUE 1 C TIP
5826 TIP5676 36388 RESIDUE 1 C TIP
5827 TIP5677 36391 RESIDUE 1 C TIP
5828 TIP5678 36394 RESIDUE 1 C TIP
5829 TIP5679 36397 RESIDUE 1 C TIP
5830 TIP5680 36400 RESIDUE 1 C TIP
5831 TIP5681 36403 RESIDUE 1 C TIP
5832 TIP5682 36406 RESIDUE 1 C TIP
5833 TIP5683 36409 RESIDUE 1 C TIP
5834 TIP5684 36412 RESIDUE 1 C TIP
5835 TIP5685 36415 RESIDUE 1 C TIP
5836 TIP5686 36418 RESIDUE 1 C TIP
5837 TIP5687 36421 RESIDUE 1 C TIP
5838 TIP5688 36424 RESIDUE 1 C TIP
5839 TIP5689 36427 RESIDUE 1 C TIP
5840 TIP5690 36430 RESIDUE 1 C TIP
5841 TIP5691 36433 RESIDUE 1 C TIP
5842 TIP5692 36436 RESIDUE 1 C TIP
5843 TIP5693 36439 RESIDUE 1 C TIP
5844 TIP5694 36442 RESIDUE 1 C TIP
5845 TIP5695 36445 RESIDUE 1 C TIP
5846 TIP5696 36448 RESIDUE 1 C TIP
5847 TIP5697 36451 RESIDUE 1 C TIP
5848 TIP5698 36454 RESIDUE 1 C TIP
5849 TIP5699 36457 RESIDUE 1 C TIP
5850 TIP5700 36460 RESIDUE 1 C TIP
5851 TIP5701 36463 RESIDUE 1 C TIP
5852 TIP5702 36466 RESIDUE 1 C TIP
5853 TIP5703 36469 RESIDUE 1 C TIP
5854 TIP5704 36472 RESIDUE 1 C TIP
5855 TIP5705 36475 RESIDUE 1 C TIP
5856 TIP5706 36478 RESIDUE 1 C TIP
5857 TIP5707 36481 RESIDUE 1 C TIP
5858 TIP5708 36484 RESIDUE 1 C TIP
5859 TIP5709 36487 RESIDUE 1 C TIP
5860 TIP5710 36490 RESIDUE 1 C TIP
5861 TIP5711 36493 RESIDUE 1 C TIP
5862 TIP5712 36496 RESIDUE 1 C TIP
5863 TIP5713 36499 RESIDUE 1 C TIP
5864 TIP5714 36502 RESIDUE 1 C TIP
5865 TIP5715 36505 RESIDUE 1 C TIP
5866 TIP5716 36508 RESIDUE 1 C TIP
5867 TIP5717 36511 RESIDUE 1 C TIP
5868 TIP5718 36514 RESIDUE 1 C TIP
5869 TIP5719 36517 RESIDUE 1 C TIP
5870 TIP5720 36520 RESIDUE 1 C TIP
5871 TIP5721 36523 RESIDUE 1 C TIP
5872 TIP5722 36526 RESIDUE 1 C TIP
5873 TIP5723 36529 RESIDUE 1 C TIP
5874 TIP5724 36532 RESIDUE 1 C TIP
5875 TIP5725 36535 RESIDUE 1 C TIP
5876 TIP5726 36538 RESIDUE 1 C TIP
5877 TIP5727 36541 RESIDUE 1 C TIP
5878 TIP5728 36544 RESIDUE 1 C TIP
5879 TIP5729 36547 RESIDUE 1 C TIP
5880 TIP5730 36550 RESIDUE 1 C TIP
5881 TIP5731 36553 RESIDUE 1 C TIP
5882 TIP5732 36556 RESIDUE 1 C TIP
5883 TIP5733 36559 RESIDUE 1 C TIP
5884 TIP5734 36562 RESIDUE 1 C TIP
5885 TIP5735 36565 RESIDUE 1 C TIP
5886 TIP5736 36568 RESIDUE 1 C TIP
5887 TIP5737 36571 RESIDUE 1 C TIP
5888 TIP5738 36574 RESIDUE 1 C TIP
5889 TIP5739 36577 RESIDUE 1 C TIP
5890 TIP5740 36580 RESIDUE 1 C TIP
5891 TIP5741 36583 RESIDUE 1 C TIP
5892 TIP5742 36586 RESIDUE 1 C TIP
5893 TIP5743 36589 RESIDUE 1 C TIP
5894 TIP5744 36592 RESIDUE 1 C TIP
5895 TIP5745 36595 RESIDUE 1 C TIP
5896 TIP5746 36598 RESIDUE 1 C TIP
5897 TIP5747 36601 RESIDUE 1 C TIP
5898 TIP5748 36604 RESIDUE 1 C TIP
5899 TIP5749 36607 RESIDUE 1 C TIP
5900 TIP5750 36610 RESIDUE 1 C TIP
5901 TIP5751 36613 RESIDUE 1 C TIP
5902 TIP5752 36616 RESIDUE 1 C TIP
5903 TIP5753 36619 RESIDUE 1 C TIP
5904 TIP5754 36622 RESIDUE 1 C TIP
5905 TIP5755 36625 RESIDUE 1 C TIP
5906 TIP5756 36628 RESIDUE 1 C TIP
5907 TIP5757 36631 RESIDUE 1 C TIP
5908 TIP5758 36634 RESIDUE 1 C TIP
5909 TIP5759 36637 RESIDUE 1 C TIP
5910 TIP5760 36640 RESIDUE 1 C TIP
5911 TIP5761 36643 RESIDUE 1 C TIP
5912 TIP5762 36646 RESIDUE 1 C TIP
5913 TIP5763 36649 RESIDUE 1 C TIP
5914 TIP5764 36652 RESIDUE 1 C TIP
5915 TIP5765 36655 RESIDUE 1 C TIP
5916 TIP5766 36658 RESIDUE 1 C TIP
5917 TIP5767 36661 RESIDUE 1 C TIP
5918 TIP5768 36664 RESIDUE 1 C TIP
5919 TIP5769 36667 RESIDUE 1 C TIP
5920 TIP5770 36670 RESIDUE 1 C TIP
5921 TIP5771 36673 RESIDUE 1 C TIP
5922 TIP5772 36676 RESIDUE 1 C TIP
5923 TIP5773 36679 RESIDUE 1 C TIP
5924 TIP5774 36682 RESIDUE 1 C TIP
5925 TIP5775 36685 RESIDUE 1 C TIP
5926 TIP5776 36688 RESIDUE 1 C TIP
5927 TIP5777 36691 RESIDUE 1 C TIP
5928 TIP5778 36694 RESIDUE 1 C TIP
5929 TIP5779 36697 RESIDUE 1 C TIP
5930 TIP5780 36700 RESIDUE 1 C TIP
5931 TIP5781 36703 RESIDUE 1 C TIP
5932 TIP5782 36706 RESIDUE 1 C TIP
5933 TIP5783 36709 RESIDUE 1 C TIP
5934 TIP5784 36712 RESIDUE 1 C TIP
5935 TIP5785 36715 RESIDUE 1 C TIP
5936 TIP5786 36718 RESIDUE 1 C TIP
5937 TIP5787 36721 RESIDUE 1 C TIP
5938 TIP5788 36724 RESIDUE 1 C TIP
5939 TIP5789 36727 RESIDUE 1 C TIP
5940 TIP5790 36730 RESIDUE 1 C TIP
5941 TIP5791 36733 RESIDUE 1 C TIP
5942 TIP5792 36736 RESIDUE 1 C TIP
5943 TIP5793 36739 RESIDUE 1 C TIP
5944 TIP5794 36742 RESIDUE 1 C TIP
5945 TIP5795 36745 RESIDUE 1 C TIP
5946 TIP5796 36748 RESIDUE 1 C TIP
5947 TIP5797 36751 RESIDUE 1 C TIP
5948 TIP5798 36754 RESIDUE 1 C TIP
5949 TIP5799 36757 RESIDUE 1 C TIP
5950 TIP5800 36760 RESIDUE 1 C TIP
5951 TIP5801 36763 RESIDUE 1 C TIP
5952 TIP5802 36766 RESIDUE 1 C TIP
5953 TIP5803 36769 RESIDUE 1 C TIP
5954 TIP5804 36772 RESIDUE 1 C TIP
5955 TIP5805 36775 RESIDUE 1 C TIP
5956 TIP5806 36778 RESIDUE 1 C TIP
5957 TIP5807 36781 RESIDUE 1 C TIP
5958 TIP5808 36784 RESIDUE 1 C TIP
5959 TIP5809 36787 RESIDUE 1 C TIP
5960 TIP5810 36790 RESIDUE 1 C TIP
5961 TIP5811 36793 RESIDUE 1 C TIP
5962 TIP5812 36796 RESIDUE 1 C TIP
5963 TIP5813 36799 RESIDUE 1 C TIP
5964 TIP5814 36802 RESIDUE 1 C TIP
5965 TIP5815 36805 RESIDUE 1 C TIP
5966 TIP5816 36808 RESIDUE 1 C TIP
5967 TIP5817 36811 RESIDUE 1 C TIP
5968 TIP5818 36814 RESIDUE 1 C TIP
5969 TIP5819 36817 RESIDUE 1 C TIP
5970 TIP5820 36820 RESIDUE 1 C TIP
5971 TIP5821 36823 RESIDUE 1 C TIP
5972 TIP5822 36826 RESIDUE 1 C TIP
5973 TIP5823 36829 RESIDUE 1 C TIP
5974 TIP5824 36832 RESIDUE 1 C TIP
5975 TIP5825 36835 RESIDUE 1 C TIP
5976 TIP5826 36838 RESIDUE 1 C TIP
5977 TIP5827 36841 RESIDUE 1 C TIP
5978 TIP5828 36844 RESIDUE 1 C TIP
5979 TIP5829 36847 RESIDUE 1 C TIP
5980 TIP5830 36850 RESIDUE 1 C TIP
5981 TIP5831 36853 RESIDUE 1 C TIP
5982 TIP5832 36856 RESIDUE 1 C TIP
5983 TIP5833 36859 RESIDUE 1 C TIP
5984 TIP5834 36862 RESIDUE 1 C TIP
5985 TIP5835 36865 RESIDUE 1 C TIP
5986 TIP5836 36868 RESIDUE 1 C TIP
5987 TIP5837 36871 RESIDUE 1 C TIP
5988 TIP5838 36874 RESIDUE 1 C TIP
5989 TIP5839 36877 RESIDUE 1 C TIP
5990 TIP5840 36880 RESIDUE 1 C TIP
5991 TIP5841 36883 RESIDUE 1 C TIP
5992 TIP5842 36886 RESIDUE 1 C TIP
5993 TIP5843 36889 RESIDUE 1 C TIP
5994 TIP5844 36892 RESIDUE 1 C TIP
5995 TIP5845 36895 RESIDUE 1 C TIP
5996 TIP5846 36898 RESIDUE 1 C TIP
5997 TIP5847 36901 RESIDUE 1 C TIP
5998 TIP5848 36904 RESIDUE 1 C TIP
5999 TIP5849 36907 RESIDUE 1 C TIP
6000 TIP5850 36910 RESIDUE 1 C TIP
6001 TIP5851 36913 RESIDUE 1 C TIP
6002 TIP5852 36916 RESIDUE 1 C TIP
6003 TIP5853 36919 RESIDUE 1 C TIP
6004 TIP5854 36922 RESIDUE 1 C TIP
6005 TIP5855 36925 RESIDUE 1 C TIP
6006 TIP5856 36928 RESIDUE 1 C TIP
6007 TIP5857 36931 RESIDUE 1 C TIP
6008 TIP5858 36934 RESIDUE 1 C TIP
6009 TIP5859 36937 RESIDUE 1 C TIP
6010 TIP5860 36940 RESIDUE 1 C TIP
6011 TIP5861 36943 RESIDUE 1 C TIP
6012 TIP5862 36946 RESIDUE 1 C TIP
6013 TIP5863 36949 RESIDUE 1 C TIP
6014 TIP5864 36952 RESIDUE 1 C TIP
6015 TIP5865 36955 RESIDUE 1 C TIP
6016 TIP5866 36958 RESIDUE 1 C TIP
6017 TIP5867 36961 RESIDUE 1 C TIP
6018 TIP5868 36964 RESIDUE 1 C TIP
6019 TIP5869 36967 RESIDUE 1 C TIP
6020 TIP5870 36970 RESIDUE 1 C TIP
6021 TIP5871 36973 RESIDUE 1 C TIP
6022 TIP5872 36976 RESIDUE 1 C TIP
6023 TIP5873 36979 RESIDUE 1 C TIP
6024 TIP5874 36982 RESIDUE 1 C TIP
6025 TIP5875 36985 RESIDUE 1 C TIP
6026 TIP5876 36988 RESIDUE 1 C TIP
6027 TIP5877 36991 RESIDUE 1 C TIP
6028 TIP5878 36994 RESIDUE 1 C TIP
6029 TIP5879 36997 RESIDUE 1 C TIP
6030 TIP5880 37000 RESIDUE 1 C TIP
6031 TIP5881 37003 RESIDUE 1 C TIP
6032 TIP5882 37006 RESIDUE 1 C TIP
6033 TIP5883 37009 RESIDUE 1 C TIP
6034 TIP5884 37012 RESIDUE 1 C TIP
6035 TIP5885 37015 RESIDUE 1 C TIP
6036 TIP5886 37018 RESIDUE 1 C TIP
6037 TIP5887 37021 RESIDUE 1 C TIP
6038 TIP5888 37024 RESIDUE 1 C TIP
6039 TIP5889 37027 RESIDUE 1 C TIP
6040 TIP5890 37030 RESIDUE 1 C TIP
6041 TIP5891 37033 RESIDUE 1 C TIP
6042 TIP5892 37036 RESIDUE 1 C TIP
6043 TIP5893 37039 RESIDUE 1 C TIP
6044 TIP5894 37042 RESIDUE 1 C TIP
6045 TIP5895 37045 RESIDUE 1 C TIP
6046 TIP5896 37048 RESIDUE 1 C TIP
6047 TIP5897 37051 RESIDUE 1 C TIP
6048 TIP5898 37054 RESIDUE 1 C TIP
6049 TIP5899 37057 RESIDUE 1 C TIP
6050 TIP5900 37060 RESIDUE 1 C TIP
6051 TIP5901 37063 RESIDUE 1 C TIP
6052 TIP5902 37066 RESIDUE 1 C TIP
6053 TIP5903 37069 RESIDUE 1 C TIP
6054 TIP5904 37072 RESIDUE 1 C TIP
6055 TIP5905 37075 RESIDUE 1 C TIP
6056 TIP5906 37078 RESIDUE 1 C TIP
6057 TIP5907 37081 RESIDUE 1 C TIP
6058 TIP5908 37084 RESIDUE 1 C TIP
6059 TIP5909 37087 RESIDUE 1 C TIP
6060 TIP5910 37090 RESIDUE 1 C TIP
6061 TIP5911 37093 RESIDUE 1 C TIP
6062 TIP5912 37096 RESIDUE 1 C TIP
6063 TIP5913 37099 RESIDUE 1 C TIP
6064 TIP5914 37102 RESIDUE 1 C TIP
6065 TIP5915 37105 RESIDUE 1 C TIP
6066 TIP5916 37108 RESIDUE 1 C TIP
6067 TIP5917 37111 RESIDUE 1 C TIP
6068 TIP5918 37114 RESIDUE 1 C TIP
6069 TIP5919 37117 RESIDUE 1 C TIP
6070 TIP5920 37120 RESIDUE 1 C TIP
6071 TIP5921 37123 RESIDUE 1 C TIP
6072 TIP5922 37126 RESIDUE 1 C TIP
6073 TIP5923 37129 RESIDUE 1 C TIP
6074 TIP5924 37132 RESIDUE 1 C TIP
6075 TIP5925 37135 RESIDUE 1 C TIP
6076 TIP5926 37138 RESIDUE 1 C TIP
6077 TIP5927 37141 RESIDUE 1 C TIP
6078 TIP5928 37144 RESIDUE 1 C TIP
6079 TIP5929 37147 RESIDUE 1 C TIP
6080 TIP5930 37150 RESIDUE 1 C TIP
6081 TIP5931 37153 RESIDUE 1 C TIP
6082 TIP5932 37156 RESIDUE 1 C TIP
6083 TIP5933 37159 RESIDUE 1 C TIP
6084 TIP5934 37162 RESIDUE 1 C TIP
6085 TIP5935 37165 RESIDUE 1 C TIP
6086 TIP5936 37168 RESIDUE 1 C TIP
6087 TIP5937 37171 RESIDUE 1 C TIP
6088 TIP5938 37174 RESIDUE 1 C TIP
6089 TIP5939 37177 RESIDUE 1 C TIP
6090 TIP5940 37180 RESIDUE 1 C TIP
6091 TIP5941 37183 RESIDUE 1 C TIP
6092 TIP5942 37186 RESIDUE 1 C TIP
6093 TIP5943 37189 RESIDUE 1 C TIP
6094 TIP5944 37192 RESIDUE 1 C TIP
6095 TIP5945 37195 RESIDUE 1 C TIP
6096 TIP5946 37198 RESIDUE 1 C TIP
6097 TIP5947 37201 RESIDUE 1 C TIP
6098 TIP5948 37204 RESIDUE 1 C TIP
6099 TIP5949 37207 RESIDUE 1 C TIP
6100 TIP5950 37210 RESIDUE 1 C TIP
6101 TIP5951 37213 RESIDUE 1 C TIP
6102 TIP5952 37216 RESIDUE 1 C TIP
6103 TIP5953 37219 RESIDUE 1 C TIP
6104 TIP5954 37222 RESIDUE 1 C TIP
6105 TIP5955 37225 RESIDUE 1 C TIP
6106 TIP5956 37228 RESIDUE 1 C TIP
6107 TIP5957 37231 RESIDUE 1 C TIP
6108 TIP5958 37234 RESIDUE 1 C TIP
6109 TIP5959 37237 RESIDUE 1 C TIP
6110 TIP5960 37240 RESIDUE 1 C TIP
6111 TIP5961 37243 RESIDUE 1 C TIP
6112 TIP5962 37246 RESIDUE 1 C TIP
6113 TIP5963 37249 RESIDUE 1 C TIP
6114 TIP5964 37252 RESIDUE 1 C TIP
6115 TIP5965 37255 RESIDUE 1 C TIP
6116 TIP5966 37258 RESIDUE 1 C TIP
6117 TIP5967 37261 RESIDUE 1 C TIP
6118 TIP5968 37264 RESIDUE 1 C TIP
6119 TIP5969 37267 RESIDUE 1 C TIP
6120 TIP5970 37270 RESIDUE 1 C TIP
6121 TIP5971 37273 RESIDUE 1 C TIP
6122 TIP5972 37276 RESIDUE 1 C TIP
6123 TIP5973 37279 RESIDUE 1 C TIP
6124 TIP5974 37282 RESIDUE 1 C TIP
6125 TIP5975 37285 RESIDUE 1 C TIP
6126 TIP5976 37288 RESIDUE 1 C TIP
6127 TIP5977 37291 RESIDUE 1 C TIP
6128 TIP5978 37294 RESIDUE 1 C TIP
6129 TIP5979 37297 RESIDUE 1 C TIP
6130 TIP5980 37300 RESIDUE 1 C TIP
6131 TIP5981 37303 RESIDUE 1 C TIP
6132 TIP5982 37306 RESIDUE 1 C TIP
6133 TIP5983 37309 RESIDUE 1 C TIP
6134 TIP5984 37312 RESIDUE 1 C TIP
6135 TIP5985 37315 RESIDUE 1 C TIP
6136 TIP5986 37318 RESIDUE 1 C TIP
6137 TIP5987 37321 RESIDUE 1 C TIP
6138 TIP5988 37324 RESIDUE 1 C TIP
6139 TIP5989 37327 RESIDUE 1 C TIP
6140 TIP5990 37330 RESIDUE 1 C TIP
6141 TIP5991 37333 RESIDUE 1 C TIP
6142 TIP5992 37336 RESIDUE 1 C TIP
6143 TIP5993 37339 RESIDUE 1 C TIP
6144 TIP5994 37342 RESIDUE 1 C TIP
6145 TIP5995 37345 RESIDUE 1 C TIP
6146 TIP5996 37348 RESIDUE 1 C TIP
6147 TIP5997 37351 RESIDUE 1 C TIP
6148 TIP5998 37354 RESIDUE 1 C TIP
6149 TIP5999 37357 RESIDUE 1 C TIP
6150 TIP6000 37360 RESIDUE 1 C TIP
6151 TIP6001 37363 RESIDUE 1 C TIP
6152 TIP6002 37366 RESIDUE 1 C TIP
6153 TIP6003 37369 RESIDUE 1 C TIP
6154 TIP6004 37372 RESIDUE 1 C TIP
6155 TIP6005 37375 RESIDUE 1 C TIP
6156 TIP6006 37378 RESIDUE 1 C TIP
6157 TIP6007 37381 RESIDUE 1 C TIP
6158 TIP6008 37384 RESIDUE 1 C TIP
6159 TIP6009 37387 RESIDUE 1 C TIP
6160 TIP6010 37390 RESIDUE 1 C TIP
6161 TIP6011 37393 RESIDUE 1 C TIP
6162 TIP6012 37396 RESIDUE 1 C TIP
6163 TIP6013 37399 RESIDUE 1 C TIP
6164 TIP6014 37402 RESIDUE 1 C TIP
6165 TIP6015 37405 RESIDUE 1 C TIP
6166 TIP6016 37408 RESIDUE 1 C TIP
6167 TIP6017 37411 RESIDUE 1 C TIP
6168 TIP6018 37414 RESIDUE 1 C TIP
6169 TIP6019 37417 RESIDUE 1 C TIP
6170 TIP6020 37420 RESIDUE 1 C TIP
6171 TIP6021 37423 RESIDUE 1 C TIP
6172 TIP6022 37426 RESIDUE 1 C TIP
6173 TIP6023 37429 RESIDUE 1 C TIP
6174 TIP6024 37432 RESIDUE 1 C TIP
6175 TIP6025 37435 RESIDUE 1 C TIP
6176 TIP6026 37438 RESIDUE 1 C TIP
6177 TIP6027 37441 RESIDUE 1 C TIP
6178 TIP6028 37444 RESIDUE 1 C TIP
6179 TIP6029 37447 RESIDUE 1 C TIP
6180 TIP6030 37450 RESIDUE 1 C TIP
6181 TIP6031 37453 RESIDUE 1 C TIP
6182 TIP6032 37456 RESIDUE 1 C TIP
6183 TIP6033 37459 RESIDUE 1 C TIP
6184 TIP6034 37462 RESIDUE 1 C TIP
6185 TIP6035 37465 RESIDUE 1 C TIP
6186 TIP6036 37468 RESIDUE 1 C TIP
6187 TIP6037 37471 RESIDUE 1 C TIP
6188 TIP6038 37474 RESIDUE 1 C TIP
6189 TIP6039 37477 RESIDUE 1 C TIP
6190 TIP6040 37480 RESIDUE 1 C TIP
6191 TIP6041 37483 RESIDUE 1 C TIP
6192 TIP6042 37486 RESIDUE 1 C TIP
6193 TIP6043 37489 RESIDUE 1 C TIP
6194 TIP6044 37492 RESIDUE 1 C TIP
6195 TIP6045 37495 RESIDUE 1 C TIP
6196 TIP6046 37498 RESIDUE 1 C TIP
6197 TIP6047 37501 RESIDUE 1 C TIP
6198 TIP6048 37504 RESIDUE 1 C TIP
6199 TIP6049 37507 RESIDUE 1 C TIP
6200 TIP6050 37510 RESIDUE 1 C TIP
6201 TIP6051 37513 RESIDUE 1 C TIP
6202 TIP6052 37516 RESIDUE 1 C TIP
6203 TIP6053 37519 RESIDUE 1 C TIP
6204 TIP6054 37522 RESIDUE 1 C TIP
6205 TIP6055 37525 RESIDUE 1 C TIP
6206 TIP6056 37528 RESIDUE 1 C TIP
6207 TIP6057 37531 RESIDUE 1 C TIP
6208 TIP6058 37534 RESIDUE 1 C TIP
6209 TIP6059 37537 RESIDUE 1 C TIP
6210 TIP6060 37540 RESIDUE 1 C TIP
6211 TIP6061 37543 RESIDUE 1 C TIP
6212 TIP6062 37546 RESIDUE 1 C TIP
6213 TIP6063 37549 RESIDUE 1 C TIP
6214 TIP6064 37552 RESIDUE 1 C TIP
6215 TIP6065 37555 RESIDUE 1 C TIP
6216 TIP6066 37558 RESIDUE 1 C TIP
6217 TIP6067 37561 RESIDUE 1 C TIP
6218 TIP6068 37564 RESIDUE 1 C TIP
6219 TIP6069 37567 RESIDUE 1 C TIP
6220 TIP6070 37570 RESIDUE 1 C TIP
6221 TIP6071 37573 RESIDUE 1 C TIP
6222 TIP6072 37576 RESIDUE 1 C TIP
6223 TIP6073 37579 RESIDUE 1 C TIP
6224 TIP6074 37582 RESIDUE 1 C TIP
6225 TIP6075 37585 RESIDUE 1 C TIP
6226 TIP6076 37588 RESIDUE 1 C TIP
6227 TIP6077 37591 RESIDUE 1 C TIP
6228 TIP6078 37594 RESIDUE 1 C TIP
6229 TIP6079 37597 RESIDUE 1 C TIP
6230 TIP6080 37600 RESIDUE 1 C TIP
6231 TIP6081 37603 RESIDUE 1 C TIP
6232 TIP6082 37606 RESIDUE 1 C TIP
6233 TIP6083 37609 RESIDUE 1 C TIP
6234 TIP6084 37612 RESIDUE 1 C TIP
6235 TIP6085 37615 RESIDUE 1 C TIP
6236 TIP6086 37618 RESIDUE 1 C TIP
6237 TIP6087 37621 RESIDUE 1 C TIP
6238 TIP6088 37624 RESIDUE 1 C TIP
6239 TIP6089 37627 RESIDUE 1 C TIP
6240 TIP6090 37630 RESIDUE 1 C TIP
6241 TIP6091 37633 RESIDUE 1 C TIP
6242 TIP6092 37636 RESIDUE 1 C TIP
6243 TIP6093 37639 RESIDUE 1 C TIP
6244 TIP6094 37642 RESIDUE 1 C TIP
6245 TIP6095 37645 RESIDUE 1 C TIP
6246 TIP6096 37648 RESIDUE 1 C TIP
6247 TIP6097 37651 RESIDUE 1 C TIP
6248 TIP6098 37654 RESIDUE 1 C TIP
6249 TIP6099 37657 RESIDUE 1 C TIP
6250 TIP6100 37660 RESIDUE 1 C TIP
6251 TIP6101 37663 RESIDUE 1 C TIP
6252 TIP6102 37666 RESIDUE 1 C TIP
6253 TIP6103 37669 RESIDUE 1 C TIP
6254 TIP6104 37672 RESIDUE 1 C TIP
6255 TIP6105 37675 RESIDUE 1 C TIP
6256 TIP6106 37678 RESIDUE 1 C TIP
6257 TIP6107 37681 RESIDUE 1 C TIP
6258 TIP6108 37684 RESIDUE 1 C TIP
6259 TIP6109 37687 RESIDUE 1 C TIP
6260 TIP6110 37690 RESIDUE 1 C TIP
6261 TIP6111 37693 RESIDUE 1 C TIP
6262 TIP6112 37696 RESIDUE 1 C TIP
6263 TIP6113 37699 RESIDUE 1 C TIP
6264 TIP6114 37702 RESIDUE 1 C TIP
6265 TIP6115 37705 RESIDUE 1 C TIP
6266 TIP6116 37708 RESIDUE 1 C TIP
6267 TIP6117 37711 RESIDUE 1 C TIP
6268 TIP6118 37714 RESIDUE 1 C TIP
6269 TIP6119 37717 RESIDUE 1 C TIP
6270 TIP6120 37720 RESIDUE 1 C TIP
6271 TIP6121 37723 RESIDUE 1 C TIP
6272 TIP6122 37726 RESIDUE 1 C TIP
6273 TIP6123 37729 RESIDUE 1 C TIP
6274 TIP6124 37732 RESIDUE 1 C TIP
6275 TIP6125 37735 RESIDUE 1 C TIP
6276 TIP6126 37738 RESIDUE 1 C TIP
6277 TIP6127 37741 RESIDUE 1 C TIP
6278 TIP6128 37744 RESIDUE 1 C TIP
6279 TIP6129 37747 RESIDUE 1 C TIP
6280 TIP6130 37750 RESIDUE 1 C TIP
6281 TIP6131 37753 RESIDUE 1 C TIP
6282 TIP6132 37756 RESIDUE 1 C TIP
6283 TIP6133 37759 RESIDUE 1 C TIP
6284 TIP6134 37762 RESIDUE 1 C TIP
6285 TIP6135 37765 RESIDUE 1 C TIP
6286 TIP6136 37768 RESIDUE 1 C TIP
6287 TIP6137 37771 RESIDUE 1 C TIP
6288 TIP6138 37774 RESIDUE 1 C TIP
6289 TIP6139 37777 RESIDUE 1 C TIP
6290 TIP6140 37780 RESIDUE 1 C TIP
6291 TIP6141 37783 RESIDUE 1 C TIP
6292 TIP6142 37786 RESIDUE 1 C TIP
6293 TIP6143 37789 RESIDUE 1 C TIP
6294 TIP6144 37792 RESIDUE 1 C TIP
6295 TIP6145 37795 RESIDUE 1 C TIP
6296 TIP6146 37798 RESIDUE 1 C TIP
6297 TIP6147 37801 RESIDUE 1 C TIP
6298 TIP6148 37804 RESIDUE 1 C TIP
6299 TIP6149 37807 RESIDUE 1 C TIP
6300 TIP6150 37810 RESIDUE 1 C TIP
6301 TIP6151 37813 RESIDUE 1 C TIP
6302 TIP6152 37816 RESIDUE 1 C TIP
6303 TIP6153 37819 RESIDUE 1 C TIP
6304 TIP6154 37822 RESIDUE 1 C TIP
6305 TIP6155 37825 RESIDUE 1 C TIP
6306 TIP6156 37828 RESIDUE 1 C TIP
6307 TIP6157 37831 RESIDUE 1 C TIP
6308 TIP6158 37834 RESIDUE 1 C TIP
6309 TIP6159 37837 RESIDUE 1 C TIP
6310 TIP6160 37840 RESIDUE 1 C TIP
6311 TIP6161 37843 RESIDUE 1 C TIP
6312 TIP6162 37846 RESIDUE 1 C TIP
6313 TIP6163 37849 RESIDUE 1 C TIP
6314 TIP6164 37852 RESIDUE 1 C TIP
6315 TIP6165 37855 RESIDUE 1 C TIP
6316 TIP6166 37858 RESIDUE 1 C TIP
6317 TIP6167 37861 RESIDUE 1 C TIP
6318 TIP6168 37864 RESIDUE 1 C TIP
6319 TIP6169 37867 RESIDUE 1 C TIP
6320 TIP6170 37870 RESIDUE 1 C TIP
6321 TIP6171 37873 RESIDUE 1 C TIP
6322 TIP6172 37876 RESIDUE 1 C TIP
6323 TIP6173 37879 RESIDUE 1 C TIP
6324 TIP6174 37882 RESIDUE 1 C TIP
6325 TIP6175 37885 RESIDUE 1 C TIP
6326 TIP6176 37888 RESIDUE 1 C TIP
6327 TIP6177 37891 RESIDUE 1 C TIP
6328 TIP6178 37894 RESIDUE 1 C TIP
6329 TIP6179 37897 RESIDUE 1 C TIP
6330 TIP6180 37900 RESIDUE 1 C TIP
6331 TIP6181 37903 RESIDUE 1 C TIP
6332 TIP6182 37906 RESIDUE 1 C TIP
6333 TIP6183 37909 RESIDUE 1 C TIP
6334 TIP6184 37912 RESIDUE 1 C TIP
6335 TIP6185 37915 RESIDUE 1 C TIP
6336 TIP6186 37918 RESIDUE 1 C TIP
6337 TIP6187 37921 RESIDUE 1 C TIP
6338 TIP6188 37924 RESIDUE 1 C TIP
6339 TIP6189 37927 RESIDUE 1 C TIP
6340 TIP6190 37930 RESIDUE 1 C TIP
6341 TIP6191 37933 RESIDUE 1 C TIP
6342 TIP6192 37936 RESIDUE 1 C TIP
6343 TIP6193 37939 RESIDUE 1 C TIP
6344 TIP6194 37942 RESIDUE 1 C TIP
6345 TIP6195 37945 RESIDUE 1 C TIP
6346 TIP6196 37948 RESIDUE 1 C TIP
6347 TIP6197 37951 RESIDUE 1 C TIP
6348 TIP6198 37954 RESIDUE 1 C TIP
6349 TIP6199 37957 RESIDUE 1 C TIP
6350 TIP6200 37960 RESIDUE 1 C TIP
6351 TIP6201 37963 RESIDUE 1 C TIP
6352 TIP6202 37966 RESIDUE 1 C TIP
6353 TIP6203 37969 RESIDUE 1 C TIP
6354 TIP6204 37972 RESIDUE 1 C TIP
6355 TIP6205 37975 RESIDUE 1 C TIP
6356 TIP6206 37978 RESIDUE 1 C TIP
6357 TIP6207 37981 RESIDUE 1 C TIP
6358 TIP6208 37984 RESIDUE 1 C TIP
6359 TIP6209 37987 RESIDUE 1 C TIP
6360 TIP6210 37990 RESIDUE 1 C TIP
6361 TIP6211 37993 RESIDUE 1 C TIP
6362 TIP6212 37996 RESIDUE 1 C TIP
6363 TIP6213 37999 RESIDUE 1 C TIP
6364 TIP6214 38002 RESIDUE 1 C TIP
6365 TIP6215 38005 RESIDUE 1 C TIP
6366 TIP6216 38008 RESIDUE 1 C TIP
6367 TIP6217 38011 RESIDUE 1 C TIP
6368 TIP6218 38014 RESIDUE 1 C TIP
6369 TIP6219 38017 RESIDUE 1 C TIP
6370 TIP6220 38020 RESIDUE 1 C TIP
6371 TIP6221 38023 RESIDUE 1 C TIP
6372 TIP6222 38026 RESIDUE 1 C TIP
6373 TIP6223 38029 RESIDUE 1 C TIP
6374 TIP6224 38032 RESIDUE 1 C TIP
6375 TIP6225 38035 RESIDUE 1 C TIP
6376 TIP6226 38038 RESIDUE 1 C TIP
6377 TIP6227 38041 RESIDUE 1 C TIP
6378 TIP6228 38044 RESIDUE 1 C TIP
6379 TIP6229 38047 RESIDUE 1 C TIP
6380 TIP6230 38050 RESIDUE 1 C TIP
6381 TIP6231 38053 RESIDUE 1 C TIP
6382 TIP6232 38056 RESIDUE 1 C TIP
6383 TIP6233 38059 RESIDUE 1 C TIP
6384 TIP6234 38062 RESIDUE 1 C TIP
6385 TIP6235 38065 RESIDUE 1 C TIP
6386 TIP6236 38068 RESIDUE 1 C TIP
6387 TIP6237 38071 RESIDUE 1 C TIP
6388 TIP6238 38074 RESIDUE 1 C TIP
6389 TIP6239 38077 RESIDUE 1 C TIP
6390 TIP6240 38080 RESIDUE 1 C TIP
6391 TIP6241 38083 RESIDUE 1 C TIP
6392 TIP6242 38086 RESIDUE 1 C TIP
6393 TIP6243 38089 RESIDUE 1 C TIP
6394 TIP6244 38092 RESIDUE 1 C TIP
6395 TIP6245 38095 RESIDUE 1 C TIP
6396 TIP6246 38098 RESIDUE 1 C TIP
6397 TIP6247 38101 RESIDUE 1 C TIP
6398 TIP6248 38104 RESIDUE 1 C TIP
6399 TIP6249 38107 RESIDUE 1 C TIP
6400 TIP6250 38110 RESIDUE 1 C TIP
6401 TIP6251 38113 RESIDUE 1 C TIP
6402 TIP6252 38116 RESIDUE 1 C TIP
6403 TIP6253 38119 RESIDUE 1 C TIP
6404 TIP6254 38122 RESIDUE 1 C TIP
6405 TIP6255 38125 RESIDUE 1 C TIP
6406 TIP6256 38128 RESIDUE 1 C TIP
6407 TIP6257 38131 RESIDUE 1 C TIP
6408 TIP6258 38134 RESIDUE 1 C TIP
6409 TIP6259 38137 RESIDUE 1 C TIP
6410 TIP6260 38140 RESIDUE 1 C TIP
6411 TIP6261 38143 RESIDUE 1 C TIP
6412 TIP6262 38146 RESIDUE 1 C TIP
6413 TIP6263 38149 RESIDUE 1 C TIP
6414 TIP6264 38152 RESIDUE 1 C TIP
6415 TIP6265 38155 RESIDUE 1 C TIP
6416 TIP6266 38158 RESIDUE 1 C TIP
6417 TIP6267 38161 RESIDUE 1 C TIP
6418 TIP6268 38164 RESIDUE 1 C TIP
6419 TIP6269 38167 RESIDUE 1 C TIP
6420 TIP6270 38170 RESIDUE 1 C TIP
6421 TIP6271 38173 RESIDUE 1 C TIP
6422 TIP6272 38176 RESIDUE 1 C TIP
6423 TIP6273 38179 RESIDUE 1 C TIP
6424 TIP6274 38182 RESIDUE 1 C TIP
6425 TIP6275 38185 RESIDUE 1 C TIP
6426 TIP6276 38188 RESIDUE 1 C TIP
6427 TIP6277 38191 RESIDUE 1 C TIP
6428 TIP6278 38194 RESIDUE 1 C TIP
6429 TIP6279 38197 RESIDUE 1 C TIP
6430 TIP6280 38200 RESIDUE 1 C TIP
6431 TIP6281 38203 RESIDUE 1 C TIP
6432 TIP6282 38206 RESIDUE 1 C TIP
6433 TIP6283 38209 RESIDUE 1 C TIP
6434 TIP6284 38212 RESIDUE 1 C TIP
6435 TIP6285 38215 RESIDUE 1 C TIP
6436 TIP6286 38218 RESIDUE 1 C TIP
6437 TIP6287 38221 RESIDUE 1 C TIP
6438 TIP6288 38224 RESIDUE 1 C TIP
6439 TIP6289 38227 RESIDUE 1 C TIP
6440 TIP6290 38230 RESIDUE 1 C TIP
6441 TIP6291 38233 RESIDUE 1 C TIP
6442 TIP6292 38236 RESIDUE 1 C TIP
6443 TIP6293 38239 RESIDUE 1 C TIP
6444 TIP6294 38242 RESIDUE 1 C TIP
6445 TIP6295 38245 RESIDUE 1 C TIP
6446 TIP6296 38248 RESIDUE 1 C TIP
6447 TIP6297 38251 RESIDUE 1 C TIP
6448 TIP6298 38254 RESIDUE 1 C TIP
6449 TIP6299 38257 RESIDUE 1 C TIP
6450 TIP6300 38260 RESIDUE 1 C TIP
6451 TIP6301 38263 RESIDUE 1 C TIP
6452 TIP6302 38266 RESIDUE 1 C TIP
6453 TIP6303 38269 RESIDUE 1 C TIP
6454 TIP6304 38272 RESIDUE 1 C TIP
6455 TIP6305 38275 RESIDUE 1 C TIP
6456 TIP6306 38278 RESIDUE 1 C TIP
6457 TIP6307 38281 RESIDUE 1 C TIP
6458 TIP6308 38284 RESIDUE 1 C TIP
6459 TIP6309 38287 RESIDUE 1 C TIP
6460 TIP6310 38290 RESIDUE 1 C TIP
6461 TIP6311 38293 RESIDUE 1 C TIP
6462 TIP6312 38296 RESIDUE 1 C TIP
6463 TIP6313 38299 RESIDUE 1 C TIP
6464 TIP6314 38302 RESIDUE 1 C TIP
6465 TIP6315 38305 RESIDUE 1 C TIP
6466 TIP6316 38308 RESIDUE 1 C TIP
6467 TIP6317 38311 RESIDUE 1 C TIP
6468 TIP6318 38314 RESIDUE 1 C TIP
6469 TIP6319 38317 RESIDUE 1 C TIP
6470 TIP6320 38320 RESIDUE 1 C TIP
6471 TIP6321 38323 RESIDUE 1 C TIP
6472 TIP6322 38326 RESIDUE 1 C TIP
6473 TIP6323 38329 RESIDUE 1 C TIP
6474 TIP6324 38332 RESIDUE 1 C TIP
6475 TIP6325 38335 RESIDUE 1 C TIP
6476 TIP6326 38338 RESIDUE 1 C TIP
6477 TIP6327 38341 RESIDUE 1 C TIP
6478 TIP6328 38344 RESIDUE 1 C TIP
6479 TIP6329 38347 RESIDUE 1 C TIP
6480 TIP6330 38350 RESIDUE 1 C TIP
6481 TIP6331 38353 RESIDUE 1 C TIP
6482 TIP6332 38356 RESIDUE 1 C TIP
6483 TIP6333 38359 RESIDUE 1 C TIP
6484 TIP6334 38362 RESIDUE 1 C TIP
6485 TIP6335 38365 RESIDUE 1 C TIP
6486 TIP6336 38368 RESIDUE 1 C TIP
6487 TIP6337 38371 RESIDUE 1 C TIP
6488 TIP6338 38374 RESIDUE 1 C TIP
6489 TIP6339 38377 RESIDUE 1 C TIP
6490 TIP6340 38380 RESIDUE 1 C TIP
6491 TIP6341 38383 RESIDUE 1 C TIP
6492 TIP6342 38386 RESIDUE 1 C TIP
6493 TIP6343 38389 RESIDUE 1 C TIP
6494 TIP6344 38392 RESIDUE 1 C TIP
6495 TIP6345 38395 RESIDUE 1 C TIP
6496 TIP6346 38398 RESIDUE 1 C TIP
6497 TIP6347 38401 RESIDUE 1 C TIP
6498 TIP6348 38404 RESIDUE 1 C TIP
6499 TIP6349 38407 RESIDUE 1 C TIP
6500 TIP6350 38410 RESIDUE 1 C TIP
6501 TIP6351 38413 RESIDUE 1 C TIP
6502 TIP6352 38416 RESIDUE 1 C TIP
6503 TIP6353 38419 RESIDUE 1 C TIP
6504 TIP6354 38422 RESIDUE 1 C TIP
6505 TIP6355 38425 RESIDUE 1 C TIP
6506 TIP6356 38428 RESIDUE 1 C TIP
6507 TIP6357 38431 RESIDUE 1 C TIP
6508 TIP6358 38434 RESIDUE 1 C TIP
6509 TIP6359 38437 RESIDUE 1 C TIP
6510 TIP6360 38440 RESIDUE 1 C TIP
6511 TIP6361 38443 RESIDUE 1 C TIP
6512 TIP6362 38446 RESIDUE 1 C TIP
6513 TIP6363 38449 RESIDUE 1 C TIP
6514 TIP6364 38452 RESIDUE 1 C TIP
6515 TIP6365 38455 RESIDUE 1 C TIP
6516 TIP6366 38458 RESIDUE 1 C TIP
6517 TIP6367 38461 RESIDUE 1 C TIP
6518 TIP6368 38464 RESIDUE 1 C TIP
6519 TIP6369 38467 RESIDUE 1 C TIP
6520 TIP6370 38470 RESIDUE 1 C TIP
6521 TIP6371 38473 RESIDUE 1 C TIP
6522 TIP6372 38476 RESIDUE 1 C TIP
6523 TIP6373 38479 RESIDUE 1 C TIP
6524 TIP6374 38482 RESIDUE 1 C TIP
6525 TIP6375 38485 RESIDUE 1 C TIP
6526 TIP6376 38488 RESIDUE 1 C TIP
6527 TIP6377 38491 RESIDUE 1 C TIP
6528 TIP6378 38494 RESIDUE 1 C TIP
6529 TIP6379 38497 RESIDUE 1 C TIP
6530 TIP6380 38500 RESIDUE 1 C TIP
6531 TIP6381 38503 RESIDUE 1 C TIP
6532 TIP6382 38506 RESIDUE 1 C TIP
6533 TIP6383 38509 RESIDUE 1 C TIP
6534 TIP6384 38512 RESIDUE 1 C TIP
6535 TIP6385 38515 RESIDUE 1 C TIP
6536 TIP6386 38518 RESIDUE 1 C TIP
6537 TIP6387 38521 RESIDUE 1 C TIP
6538 TIP6388 38524 RESIDUE 1 C TIP
6539 TIP6389 38527 RESIDUE 1 C TIP
6540 TIP6390 38530 RESIDUE 1 C TIP
6541 TIP6391 38533 RESIDUE 1 C TIP
6542 TIP6392 38536 RESIDUE 1 C TIP
6543 TIP6393 38539 RESIDUE 1 C TIP
6544 TIP6394 38542 RESIDUE 1 C TIP
6545 TIP6395 38545 RESIDUE 1 C TIP
6546 TIP6396 38548 RESIDUE 1 C TIP
6547 TIP6397 38551 RESIDUE 1 C TIP
6548 TIP6398 38554 RESIDUE 1 C TIP
6549 TIP6399 38557 RESIDUE 1 C TIP
6550 TIP6400 38560 RESIDUE 1 C TIP
6551 TIP6401 38563 RESIDUE 1 C TIP
6552 TIP6402 38566 RESIDUE 1 C TIP
6553 TIP6403 38569 RESIDUE 1 C TIP
6554 TIP6404 38572 RESIDUE 1 C TIP
6555 TIP6405 38575 RESIDUE 1 C TIP
6556 TIP6406 38578 RESIDUE 1 C TIP
6557 TIP6407 38581 RESIDUE 1 C TIP
6558 TIP6408 38584 RESIDUE 1 C TIP
6559 TIP6409 38587 RESIDUE 1 C TIP
6560 TIP6410 38590 RESIDUE 1 C TIP
6561 TIP6411 38593 RESIDUE 1 C TIP
6562 TIP6412 38596 RESIDUE 1 C TIP
6563 TIP6413 38599 RESIDUE 1 C TIP
6564 TIP6414 38602 RESIDUE 1 C TIP
6565 TIP6415 38605 RESIDUE 1 C TIP
6566 TIP6416 38608 RESIDUE 1 C TIP
6567 TIP6417 38611 RESIDUE 1 C TIP
6568 TIP6418 38614 RESIDUE 1 C TIP
6569 TIP6419 38617 RESIDUE 1 C TIP
6570 TIP6420 38620 RESIDUE 1 C TIP
6571 TIP6421 38623 RESIDUE 1 C TIP
6572 TIP6422 38626 RESIDUE 1 C TIP
6573 TIP6423 38629 RESIDUE 1 C TIP
6574 TIP6424 38632 RESIDUE 1 C TIP
6575 TIP6425 38635 RESIDUE 1 C TIP
6576 TIP6426 38638 RESIDUE 1 C TIP
6577 TIP6427 38641 RESIDUE 1 C TIP
6578 TIP6428 38644 RESIDUE 1 C TIP
6579 TIP6429 38647 RESIDUE 1 C TIP
6580 TIP6430 38650 RESIDUE 1 C TIP
6581 TIP6431 38653 RESIDUE 1 C TIP
6582 TIP6432 38656 RESIDUE 1 C TIP
6583 TIP6433 38659 RESIDUE 1 C TIP
6584 TIP6434 38662 RESIDUE 1 C TIP
6585 TIP6435 38665 RESIDUE 1 C TIP
6586 TIP6436 38668 RESIDUE 1 C TIP
6587 TIP6437 38671 RESIDUE 1 C TIP
6588 TIP6438 38674 RESIDUE 1 C TIP
6589 TIP6439 38677 RESIDUE 1 C TIP
6590 TIP6440 38680 RESIDUE 1 C TIP
6591 TIP6441 38683 RESIDUE 1 C TIP
6592 TIP6442 38686 RESIDUE 1 C TIP
6593 TIP6443 38689 RESIDUE 1 C TIP
6594 TIP6444 38692 RESIDUE 1 C TIP
6595 TIP6445 38695 RESIDUE 1 C TIP
6596 TIP6446 38698 RESIDUE 1 C TIP
6597 TIP6447 38701 RESIDUE 1 C TIP
6598 TIP6448 38704 RESIDUE 1 C TIP
6599 TIP6449 38707 RESIDUE 1 C TIP
6600 TIP6450 38710 RESIDUE 1 C TIP
6601 TIP6451 38713 RESIDUE 1 C TIP
6602 TIP6452 38716 RESIDUE 1 C TIP
6603 TIP6453 38719 RESIDUE 1 C TIP
6604 TIP6454 38722 RESIDUE 1 C TIP
6605 TIP6455 38725 RESIDUE 1 C TIP
6606 TIP6456 38728 RESIDUE 1 C TIP
6607 TIP6457 38731 RESIDUE 1 C TIP
6608 TIP6458 38734 RESIDUE 1 C TIP
6609 TIP6459 38737 RESIDUE 1 C TIP
6610 TIP6460 38740 RESIDUE 1 C TIP
6611 TIP6461 38743 RESIDUE 1 C TIP
6612 TIP6462 38746 RESIDUE 1 C TIP
6613 TIP6463 38749 RESIDUE 1 C TIP
6614 TIP6464 38752 RESIDUE 1 C TIP
6615 TIP6465 38755 RESIDUE 1 C TIP
6616 TIP6466 38758 RESIDUE 1 C TIP
6617 TIP6467 38761 RESIDUE 1 C TIP
6618 TIP6468 38764 RESIDUE 1 C TIP
6619 TIP6469 38767 RESIDUE 1 C TIP
6620 TIP6470 38770 RESIDUE 1 C TIP
6621 TIP6471 38773 RESIDUE 1 C TIP
6622 TIP6472 38776 RESIDUE 1 C TIP
6623 TIP6473 38779 RESIDUE 1 C TIP
6624 TIP6474 38782 RESIDUE 1 C TIP
6625 TIP6475 38785 RESIDUE 1 C TIP
6626 TIP6476 38788 RESIDUE 1 C TIP
6627 TIP6477 38791 RESIDUE 1 C TIP
6628 TIP6478 38794 RESIDUE 1 C TIP
6629 TIP6479 38797 RESIDUE 1 C TIP
6630 TIP6480 38800 RESIDUE 1 C TIP
6631 TIP6481 38803 RESIDUE 1 C TIP
6632 TIP6482 38806 RESIDUE 1 C TIP
6633 TIP6483 38809 RESIDUE 1 C TIP
6634 TIP6484 38812 RESIDUE 1 C TIP
6635 TIP6485 38815 RESIDUE 1 C TIP
6636 TIP6486 38818 RESIDUE 1 C TIP
6637 TIP6487 38821 RESIDUE 1 C TIP
6638 TIP6488 38824 RESIDUE 1 C TIP
6639 TIP6489 38827 RESIDUE 1 C TIP
6640 TIP6490 38830 RESIDUE 1 C TIP
6641 TIP6491 38833 RESIDUE 1 C TIP
6642 TIP6492 38836 RESIDUE 1 C TIP
6643 TIP6493 38839 RESIDUE 1 C TIP
6644 TIP6494 38842 RESIDUE 1 C TIP
6645 TIP6495 38845 RESIDUE 1 C TIP
6646 TIP6496 38848 RESIDUE 1 C TIP
6647 TIP6497 38851 RESIDUE 1 C TIP
6648 TIP6498 38854 RESIDUE 1 C TIP
6649 TIP6499 38857 RESIDUE 1 C TIP
6650 TIP6500 38860 RESIDUE 1 C TIP
6651 TIP6501 38863 RESIDUE 1 C TIP
6652 TIP6502 38866 RESIDUE 1 C TIP
6653 TIP6503 38869 RESIDUE 1 C TIP
6654 TIP6504 38872 RESIDUE 1 C TIP
6655 TIP6505 38875 RESIDUE 1 C TIP
6656 TIP6506 38878 RESIDUE 1 C TIP
6657 TIP6507 38881 RESIDUE 1 C TIP
6658 TIP6508 38884 RESIDUE 1 C TIP
6659 TIP6509 38887 RESIDUE 1 C TIP
6660 TIP6510 38890 RESIDUE 1 C TIP
6661 TIP6511 38893 RESIDUE 1 C TIP
6662 TIP6512 38896 RESIDUE 1 C TIP
6663 TIP6513 38899 RESIDUE 1 C TIP
6664 TIP6514 38902 RESIDUE 1 C TIP
6665 TIP6515 38905 RESIDUE 1 C TIP
6666 TIP6516 38908 RESIDUE 1 C TIP
6667 TIP6517 38911 RESIDUE 1 C TIP
6668 TIP6518 38914 RESIDUE 1 C TIP
6669 TIP6519 38917 RESIDUE 1 C TIP
6670 TIP6520 38920 RESIDUE 1 C TIP
6671 TIP6521 38923 RESIDUE 1 C TIP
6672 TIP6522 38926 RESIDUE 1 C TIP
6673 TIP6523 38929 RESIDUE 1 C TIP
6674 TIP6524 38932 RESIDUE 1 C TIP
6675 TIP6525 38935 RESIDUE 1 C TIP
6676 TIP6526 38938 RESIDUE 1 C TIP
6677 TIP6527 38941 RESIDUE 1 C TIP
6678 TIP6528 38944 RESIDUE 1 C TIP
6679 TIP6529 38947 RESIDUE 1 C TIP
6680 TIP6530 38950 RESIDUE 1 C TIP
6681 TIP6531 38953 RESIDUE 1 C TIP
6682 TIP6532 38956 RESIDUE 1 C TIP
6683 TIP6533 38959 RESIDUE 1 C TIP
6684 TIP6534 38962 RESIDUE 1 C TIP
6685 TIP6535 38965 RESIDUE 1 C TIP
6686 TIP6536 38968 RESIDUE 1 C TIP
6687 TIP6537 38971 RESIDUE 1 C TIP
6688 TIP6538 38974 RESIDUE 1 C TIP
6689 TIP6539 38977 RESIDUE 1 C TIP
6690 TIP6540 38980 RESIDUE 1 C TIP
6691 TIP6541 38983 RESIDUE 1 C TIP
6692 TIP6542 38986 RESIDUE 1 C TIP
6693 TIP6543 38989 RESIDUE 1 C TIP
6694 TIP6544 38992 RESIDUE 1 C TIP
6695 TIP6545 38995 RESIDUE 1 C TIP
6696 TIP6546 38998 RESIDUE 1 C TIP
6697 TIP6547 39001 RESIDUE 1 C TIP
6698 TIP6548 39004 RESIDUE 1 C TIP
6699 TIP6549 39007 RESIDUE 1 C TIP
6700 TIP6550 39010 RESIDUE 1 C TIP
6701 TIP6551 39013 RESIDUE 1 C TIP
6702 TIP6552 39016 RESIDUE 1 C TIP
6703 TIP6553 39019 RESIDUE 1 C TIP
6704 TIP6554 39022 RESIDUE 1 C TIP
6705 TIP6555 39025 RESIDUE 1 C TIP
6706 TIP6556 39028 RESIDUE 1 C TIP
6707 TIP6557 39031 RESIDUE 1 C TIP
6708 TIP6558 39034 RESIDUE 1 C TIP
6709 TIP6559 39037 RESIDUE 1 C TIP
6710 TIP6560 39040 RESIDUE 1 C TIP
6711 TIP6561 39043 RESIDUE 1 C TIP
6712 TIP6562 39046 RESIDUE 1 C TIP
6713 TIP6563 39049 RESIDUE 1 C TIP
6714 TIP6564 39052 RESIDUE 1 C TIP
6715 TIP6565 39055 RESIDUE 1 C TIP
6716 TIP6566 39058 RESIDUE 1 C TIP
6717 TIP6567 39061 RESIDUE 1 C TIP
6718 TIP6568 39064 RESIDUE 1 C TIP
6719 TIP6569 39067 RESIDUE 1 C TIP
6720 TIP6570 39070 RESIDUE 1 C TIP
6721 TIP6571 39073 RESIDUE 1 C TIP
6722 TIP6572 39076 RESIDUE 1 C TIP
6723 TIP6573 39079 RESIDUE 1 C TIP
6724 TIP6574 39082 RESIDUE 1 C TIP
6725 TIP6575 39085 RESIDUE 1 C TIP
6726 TIP6576 39088 RESIDUE 1 C TIP
6727 TIP6577 39091 RESIDUE 1 C TIP
6728 TIP6578 39094 RESIDUE 1 C TIP
6729 TIP6579 39097 RESIDUE 1 C TIP
6730 TIP6580 39100 RESIDUE 1 C TIP
6731 TIP6581 39103 RESIDUE 1 C TIP
6732 TIP6582 39106 RESIDUE 1 C TIP
6733 TIP6583 39109 RESIDUE 1 C TIP
6734 TIP6584 39112 RESIDUE 1 C TIP
6735 TIP6585 39115 RESIDUE 1 C TIP
6736 TIP6586 39118 RESIDUE 1 C TIP
6737 TIP6587 39121 RESIDUE 1 C TIP
6738 TIP6588 39124 RESIDUE 1 C TIP
6739 TIP6589 39127 RESIDUE 1 C TIP
6740 TIP6590 39130 RESIDUE 1 C TIP
6741 TIP6591 39133 RESIDUE 1 C TIP
6742 TIP6592 39136 RESIDUE 1 C TIP
6743 TIP6593 39139 RESIDUE 1 C TIP
6744 TIP6594 39142 RESIDUE 1 C TIP
6745 TIP6595 39145 RESIDUE 1 C TIP
6746 TIP6596 39148 RESIDUE 1 C TIP
6747 TIP6597 39151 RESIDUE 1 C TIP
6748 TIP6598 39154 RESIDUE 1 C TIP
6749 TIP6599 39157 RESIDUE 1 C TIP
6750 TIP6600 39160 RESIDUE 1 C TIP
6751 TIP6601 39163 RESIDUE 1 C TIP
6752 TIP6602 39166 RESIDUE 1 C TIP
6753 TIP6603 39169 RESIDUE 1 C TIP
6754 TIP6604 39172 RESIDUE 1 C TIP
6755 TIP6605 39175 RESIDUE 1 C TIP
6756 TIP6606 39178 RESIDUE 1 C TIP
6757 TIP6607 39181 RESIDUE 1 C TIP
6758 TIP6608 39184 RESIDUE 1 C TIP
6759 TIP6609 39187 RESIDUE 1 C TIP
6760 TIP6610 39190 RESIDUE 1 C TIP
6761 TIP6611 39193 RESIDUE 1 C TIP
6762 TIP6612 39196 RESIDUE 1 C TIP
6763 TIP6613 39199 RESIDUE 1 C TIP
6764 TIP6614 39202 RESIDUE 1 C TIP
6765 TIP6615 39205 RESIDUE 1 C TIP
6766 TIP6616 39208 RESIDUE 1 C TIP
6767 TIP6617 39211 RESIDUE 1 C TIP
6768 TIP6618 39214 RESIDUE 1 C TIP
6769 TIP6619 39217 RESIDUE 1 C TIP
6770 TIP6620 39220 RESIDUE 1 C TIP
6771 TIP6621 39223 RESIDUE 1 C TIP
6772 TIP6622 39226 RESIDUE 1 C TIP
6773 TIP6623 39229 RESIDUE 1 C TIP
6774 TIP6624 39232 RESIDUE 1 C TIP
6775 TIP6625 39235 RESIDUE 1 C TIP
6776 TIP6626 39238 RESIDUE 1 C TIP
6777 TIP6627 39241 RESIDUE 1 C TIP
6778 TIP6628 39244 RESIDUE 1 C TIP
6779 TIP6629 39247 RESIDUE 1 C TIP
6780 TIP6630 39250 RESIDUE 1 C TIP
6781 TIP6631 39253 RESIDUE 1 C TIP
6782 TIP6632 39256 RESIDUE 1 C TIP
6783 TIP6633 39259 RESIDUE 1 C TIP
6784 TIP6634 39262 RESIDUE 1 C TIP
6785 TIP6635 39265 RESIDUE 1 C TIP
6786 TIP6636 39268 RESIDUE 1 C TIP
6787 TIP6637 39271 RESIDUE 1 C TIP
6788 TIP6638 39274 RESIDUE 1 C TIP
6789 TIP6639 39277 RESIDUE 1 C TIP
6790 TIP6640 39280 RESIDUE 1 C TIP
6791 TIP6641 39283 RESIDUE 1 C TIP
6792 TIP6642 39286 RESIDUE 1 C TIP
6793 TIP6643 39289 RESIDUE 1 C TIP
6794 TIP6644 39292 RESIDUE 1 C TIP
6795 TIP6645 39295 RESIDUE 1 C TIP
6796 TIP6646 39298 RESIDUE 1 C TIP
6797 TIP6647 39301 RESIDUE 1 C TIP
6798 TIP6648 39304 RESIDUE 1 C TIP
6799 TIP6649 39307 RESIDUE 1 C TIP
6800 TIP6650 39310 RESIDUE 1 C TIP
6801 TIP6651 39313 RESIDUE 1 C TIP
6802 TIP6652 39316 RESIDUE 1 C TIP
6803 TIP6653 39319 RESIDUE 1 C TIP
6804 TIP6654 39322 RESIDUE 1 C TIP
6805 TIP6655 39325 RESIDUE 1 C TIP
6806 TIP6656 39328 RESIDUE 1 C TIP
6807 TIP6657 39331 RESIDUE 1 C TIP
6808 TIP6658 39334 RESIDUE 1 C TIP
6809 TIP6659 39337 RESIDUE 1 C TIP
6810 TIP6660 39340 RESIDUE 1 C TIP
6811 TIP6661 39343 RESIDUE 1 C TIP
6812 TIP6662 39346 RESIDUE 1 C TIP
6813 TIP6663 39349 RESIDUE 1 C TIP
6814 TIP6664 39352 RESIDUE 1 C TIP
6815 TIP6665 39355 RESIDUE 1 C TIP
6816 TIP6666 39358 RESIDUE 1 C TIP
6817 TIP6667 39361 RESIDUE 1 C TIP
6818 TIP6668 39364 RESIDUE 1 C TIP
6819 TIP6669 39367 RESIDUE 1 C TIP
6820 TIP6670 39370 RESIDUE 1 C TIP
6821 TIP6671 39373 RESIDUE 1 C TIP
6822 TIP6672 39376 RESIDUE 1 C TIP
6823 TIP6673 39379 RESIDUE 1 C TIP
6824 TIP6674 39382 RESIDUE 1 C TIP
6825 TIP6675 39385 RESIDUE 1 C TIP
6826 TIP6676 39388 RESIDUE 1 C TIP
6827 TIP6677 39391 RESIDUE 1 C TIP
6828 TIP6678 39394 RESIDUE 1 C TIP
6829 TIP6679 39397 RESIDUE 1 C TIP
6830 TIP6680 39400 RESIDUE 1 C TIP
6831 TIP6681 39403 RESIDUE 1 C TIP
6832 TIP6682 39406 RESIDUE 1 C TIP
6833 TIP6683 39409 RESIDUE 1 C TIP
6834 TIP6684 39412 RESIDUE 1 C TIP
6835 TIP6685 39415 RESIDUE 1 C TIP
6836 TIP6686 39418 RESIDUE 1 C TIP
6837 TIP6687 39421 RESIDUE 1 C TIP
6838 TIP6688 39424 RESIDUE 1 C TIP
6839 TIP6689 39427 RESIDUE 1 C TIP
6840 TIP6690 39430 RESIDUE 1 C TIP
6841 TIP6691 39433 RESIDUE 1 C TIP
6842 TIP6692 39436 RESIDUE 1 C TIP
6843 TIP6693 39439 RESIDUE 1 C TIP
6844 TIP6694 39442 RESIDUE 1 C TIP
6845 TIP6695 39445 RESIDUE 1 C TIP
6846 TIP6696 39448 RESIDUE 1 C TIP
6847 TIP6697 39451 RESIDUE 1 C TIP
6848 TIP6698 39454 RESIDUE 1 C TIP
6849 TIP6699 39457 RESIDUE 1 C TIP
6850 TIP6700 39460 RESIDUE 1 C TIP
6851 TIP6701 39463 RESIDUE 1 C TIP
6852 TIP6702 39466 RESIDUE 1 C TIP
6853 TIP6703 39469 RESIDUE 1 C TIP
6854 TIP6704 39472 RESIDUE 1 C TIP
6855 TIP6705 39475 RESIDUE 1 C TIP
6856 TIP6706 39478 RESIDUE 1 C TIP
6857 TIP6707 39481 RESIDUE 1 C TIP
6858 TIP6708 39484 RESIDUE 1 C TIP
6859 TIP6709 39487 RESIDUE 1 C TIP
6860 TIP6710 39490 RESIDUE 1 C TIP
6861 TIP6711 39493 RESIDUE 1 C TIP
6862 TIP6712 39496 RESIDUE 1 C TIP
6863 TIP6713 39499 RESIDUE 1 C TIP
6864 TIP6714 39502 RESIDUE 1 C TIP
6865 TIP6715 39505 RESIDUE 1 C TIP
6866 TIP6716 39508 RESIDUE 1 C TIP
6867 TIP6717 39511 RESIDUE 1 C TIP
6868 TIP6718 39514 RESIDUE 1 C TIP
6869 TIP6719 39517 RESIDUE 1 C TIP
6870 TIP6720 39520 RESIDUE 1 C TIP
6871 TIP6721 39523 RESIDUE 1 C TIP
6872 TIP6722 39526 RESIDUE 1 C TIP
6873 TIP6723 39529 RESIDUE 1 C TIP
6874 TIP6724 39532 RESIDUE 1 C TIP
6875 TIP6725 39535 RESIDUE 1 C TIP
6876 TIP6726 39538 RESIDUE 1 C TIP
6877 TIP6727 39541 RESIDUE 1 C TIP
6878 TIP6728 39544 RESIDUE 1 C TIP
6879 TIP6729 39547 RESIDUE 1 C TIP
6880 TIP6730 39550 RESIDUE 1 C TIP
6881 TIP6731 39553 RESIDUE 1 C TIP
6882 TIP6732 39556 RESIDUE 1 C TIP
6883 TIP6733 39559 RESIDUE 1 C TIP
6884 TIP6734 39562 RESIDUE 1 C TIP
6885 TIP6735 39565 RESIDUE 1 C TIP
6886 TIP6736 39568 RESIDUE 1 C TIP
6887 TIP6737 39571 RESIDUE 1 C TIP
6888 TIP6738 39574 RESIDUE 1 C TIP
6889 TIP6739 39577 RESIDUE 1 C TIP
6890 TIP6740 39580 RESIDUE 1 C TIP
6891 TIP6741 39583 RESIDUE 1 C TIP
6892 TIP6742 39586 RESIDUE 1 C TIP
6893 TIP6743 39589 RESIDUE 1 C TIP
6894 TIP6744 39592 RESIDUE 1 C TIP
6895 TIP6745 39595 RESIDUE 1 C TIP
6896 TIP6746 39598 RESIDUE 1 C TIP
6897 TIP6747 39601 RESIDUE 1 C TIP
6898 TIP6748 39604 RESIDUE 1 C TIP
6899 TIP6749 39607 RESIDUE 1 C TIP
6900 TIP6750 39610 RESIDUE 1 C TIP
6901 TIP6751 39613 RESIDUE 1 C TIP
6902 TIP6752 39616 RESIDUE 1 C TIP
6903 TIP6753 39619 RESIDUE 1 C TIP
6904 TIP6754 39622 RESIDUE 1 C TIP
6905 TIP6755 39625 RESIDUE 1 C TIP
6906 TIP6756 39628 RESIDUE 1 C TIP
6907 TIP6757 39631 RESIDUE 1 C TIP
6908 TIP6758 39634 RESIDUE 1 C TIP
6909 TIP6759 39637 RESIDUE 1 C TIP
6910 TIP6760 39640 RESIDUE 1 C TIP
6911 TIP6761 39643 RESIDUE 1 C TIP
6912 TIP6762 39646 RESIDUE 1 C TIP
6913 TIP6763 39649 RESIDUE 1 C TIP
6914 TIP6764 39652 RESIDUE 1 C TIP
6915 TIP6765 39655 RESIDUE 1 C TIP
6916 TIP6766 39658 RESIDUE 1 C TIP
6917 TIP6767 39661 RESIDUE 1 C TIP
6918 TIP6768 39664 RESIDUE 1 C TIP
6919 TIP6769 39667 RESIDUE 1 C TIP
6920 TIP6770 39670 RESIDUE 1 C TIP
6921 TIP6771 39673 RESIDUE 1 C TIP
6922 TIP6772 39676 RESIDUE 1 C TIP
6923 TIP6773 39679 RESIDUE 1 C TIP
6924 TIP6774 39682 RESIDUE 1 C TIP
6925 TIP6775 39685 RESIDUE 1 C TIP
6926 TIP6776 39688 RESIDUE 1 C TIP
6927 TIP6777 39691 RESIDUE 1 C TIP
6928 TIP6778 39694 RESIDUE 1 C TIP
6929 TIP6779 39697 RESIDUE 1 C TIP
6930 TIP6780 39700 RESIDUE 1 C TIP
6931 TIP6781 39703 RESIDUE 1 C TIP
6932 TIP6782 39706 RESIDUE 1 C TIP
6933 TIP6783 39709 RESIDUE 1 C TIP
6934 TIP6784 39712 RESIDUE 1 C TIP
6935 TIP6785 39715 RESIDUE 1 C TIP
6936 TIP6786 39718 RESIDUE 1 C TIP
6937 TIP6787 39721 RESIDUE 1 C TIP
6938 TIP6788 39724 RESIDUE 1 C TIP
6939 TIP6789 39727 RESIDUE 1 C TIP
6940 TIP6790 39730 RESIDUE 1 C TIP
6941 TIP6791 39733 RESIDUE 1 C TIP
6942 TIP6792 39736 RESIDUE 1 C TIP
6943 TIP6793 39739 RESIDUE 1 C TIP
6944 TIP6794 39742 RESIDUE 1 C TIP
6945 TIP6795 39745 RESIDUE 1 C TIP
6946 TIP6796 39748 RESIDUE 1 C TIP
6947 TIP6797 39751 RESIDUE 1 C TIP
6948 TIP6798 39754 RESIDUE 1 C TIP
6949 TIP6799 39757 RESIDUE 1 C TIP
6950 TIP6800 39760 RESIDUE 1 C TIP
6951 TIP6801 39763 RESIDUE 1 C TIP
6952 TIP6802 39766 RESIDUE 1 C TIP
6953 TIP6803 39769 RESIDUE 1 C TIP
6954 TIP6804 39772 RESIDUE 1 C TIP
6955 TIP6805 39775 RESIDUE 1 C TIP
6956 TIP6806 39778 RESIDUE 1 C TIP
6957 TIP6807 39781 RESIDUE 1 C TIP
6958 TIP6808 39784 RESIDUE 1 C TIP
6959 TIP6809 39787 RESIDUE 1 C TIP
6960 TIP6810 39790 RESIDUE 1 C TIP
6961 TIP6811 39793 RESIDUE 1 C TIP
6962 TIP6812 39796 RESIDUE 1 C TIP
6963 TIP6813 39799 RESIDUE 1 C TIP
6964 TIP6814 39802 RESIDUE 1 C TIP
6965 TIP6815 39805 RESIDUE 1 C TIP
6966 TIP6816 39808 RESIDUE 1 C TIP
6967 TIP6817 39811 RESIDUE 1 C TIP
6968 TIP6818 39814 RESIDUE 1 C TIP
6969 TIP6819 39817 RESIDUE 1 C TIP
6970 TIP6820 39820 RESIDUE 1 C TIP
6971 TIP6821 39823 RESIDUE 1 C TIP
6972 TIP6822 39826 RESIDUE 1 C TIP
6973 TIP6823 39829 RESIDUE 1 C TIP
6974 TIP6824 39832 RESIDUE 1 C TIP
6975 TIP6825 39835 RESIDUE 1 C TIP
6976 TIP6826 39838 RESIDUE 1 C TIP
6977 TIP6827 39841 RESIDUE 1 C TIP
6978 TIP6828 39844 RESIDUE 1 C TIP
6979 TIP6829 39847 RESIDUE 1 C TIP
6980 TIP6830 39850 RESIDUE 1 C TIP
6981 TIP6831 39853 RESIDUE 1 C TIP
6982 TIP6832 39856 RESIDUE 1 C TIP
6983 TIP6833 39859 RESIDUE 1 C TIP
6984 TIP6834 39862 RESIDUE 1 C TIP
6985 TIP6835 39865 RESIDUE 1 C TIP
6986 TIP6836 39868 RESIDUE 1 C TIP
6987 TIP6837 39871 RESIDUE 1 C TIP
6988 TIP6838 39874 RESIDUE 1 C TIP
6989 TIP6839 39877 RESIDUE 1 C TIP
6990 TIP6840 39880 RESIDUE 1 C TIP
6991 TIP6841 39883 RESIDUE 1 C TIP
6992 TIP6842 39886 RESIDUE 1 C TIP
6993 TIP6843 39889 RESIDUE 1 C TIP
6994 TIP6844 39892 RESIDUE 1 C TIP
6995 TIP6845 39895 RESIDUE 1 C TIP
6996 TIP6846 39898 RESIDUE 1 C TIP
6997 TIP6847 39901 RESIDUE 1 C TIP
6998 TIP6848 39904 RESIDUE 1 C TIP
6999 TIP6849 39907 RESIDUE 1 C TIP
7000 TIP6850 39910 RESIDUE 1 C TIP
7001 TIP6851 39913 RESIDUE 1 C TIP
7002 TIP6852 39916 RESIDUE 1 C TIP
7003 TIP6853 39919 RESIDUE 1 C TIP
7004 TIP6854 39922 RESIDUE 1 C TIP
7005 TIP6855 39925 RESIDUE 1 C TIP
7006 TIP6856 39928 RESIDUE 1 C TIP
7007 TIP6857 39931 RESIDUE 1 C TIP
7008 TIP6858 39934 RESIDUE 1 C TIP
7009 TIP6859 39937 RESIDUE 1 C TIP
7010 TIP6860 39940 RESIDUE 1 C TIP
7011 TIP6861 39943 RESIDUE 1 C TIP
7012 TIP6862 39946 RESIDUE 1 C TIP
7013 TIP6863 39949 RESIDUE 1 C TIP
7014 TIP6864 39952 RESIDUE 1 C TIP
7015 TIP6865 39955 RESIDUE 1 C TIP
7016 TIP6866 39958 RESIDUE 1 C TIP
7017 TIP6867 39961 RESIDUE 1 C TIP
7018 TIP6868 39964 RESIDUE 1 C TIP
7019 TIP6869 39967 RESIDUE 1 C TIP
7020 TIP6870 39970 RESIDUE 1 C TIP
7021 TIP6871 39973 RESIDUE 1 C TIP
7022 TIP6872 39976 RESIDUE 1 C TIP
7023 TIP6873 39979 RESIDUE 1 C TIP
7024 TIP6874 39982 RESIDUE 1 C TIP
7025 TIP6875 39985 RESIDUE 1 C TIP
7026 TIP6876 39988 RESIDUE 1 C TIP
7027 TIP6877 39991 RESIDUE 1 C TIP
7028 TIP6878 39994 RESIDUE 1 C TIP
7029 TIP6879 39997 RESIDUE 1 C TIP
7030 TIP6880 40000 RESIDUE 1 C TIP
7031 TIP6881 40003 RESIDUE 1 C TIP
7032 TIP6882 40006 RESIDUE 1 C TIP
7033 TIP6883 40009 RESIDUE 1 C TIP
7034 TIP6884 40012 RESIDUE 1 C TIP
7035 TIP6885 40015 RESIDUE 1 C TIP
7036 TIP6886 40018 RESIDUE 1 C TIP
7037 TIP6887 40021 RESIDUE 1 C TIP
7038 TIP6888 40024 RESIDUE 1 C TIP
7039 TIP6889 40027 RESIDUE 1 C TIP
7040 TIP6890 40030 RESIDUE 1 C TIP
7041 TIP6891 40033 RESIDUE 1 C TIP
7042 TIP6892 40036 RESIDUE 1 C TIP
7043 TIP6893 40039 RESIDUE 1 C TIP
7044 TIP6894 40042 RESIDUE 1 C TIP
7045 TIP6895 40045 RESIDUE 1 C TIP
7046 TIP6896 40048 RESIDUE 1 C TIP
7047 TIP6897 40051 RESIDUE 1 C TIP
7048 TIP6898 40054 RESIDUE 1 C TIP
7049 TIP6899 40057 RESIDUE 1 C TIP
7050 TIP6900 40060 RESIDUE 1 C TIP
7051 TIP6901 40063 RESIDUE 1 C TIP
7052 TIP6902 40066 RESIDUE 1 C TIP
7053 TIP6903 40069 RESIDUE 1 C TIP
7054 TIP6904 40072 RESIDUE 1 C TIP
7055 TIP6905 40075 RESIDUE 1 C TIP
7056 TIP6906 40078 RESIDUE 1 C TIP
7057 TIP6907 40081 RESIDUE 1 C TIP
7058 TIP6908 40084 RESIDUE 1 C TIP
7059 TIP6909 40087 RESIDUE 1 C TIP
7060 TIP6910 40090 RESIDUE 1 C TIP
7061 TIP6911 40093 RESIDUE 1 C TIP
7062 TIP6912 40096 RESIDUE 1 C TIP
7063 TIP6913 40099 RESIDUE 1 C TIP
7064 TIP6914 40102 RESIDUE 1 C TIP
7065 TIP6915 40105 RESIDUE 1 C TIP
7066 TIP6916 40108 RESIDUE 1 C TIP
7067 TIP6917 40111 RESIDUE 1 C TIP
7068 TIP6918 40114 RESIDUE 1 C TIP
7069 TIP6919 40117 RESIDUE 1 C TIP
7070 TIP6920 40120 RESIDUE 1 C TIP
7071 TIP6921 40123 RESIDUE 1 C TIP
7072 TIP6922 40126 RESIDUE 1 C TIP
7073 TIP6923 40129 RESIDUE 1 C TIP
7074 TIP6924 40132 RESIDUE 1 C TIP
7075 TIP6925 40135 RESIDUE 1 C TIP
7076 TIP6926 40138 RESIDUE 1 C TIP
7077 TIP6927 40141 RESIDUE 1 C TIP
7078 TIP6928 40144 RESIDUE 1 C TIP
7079 TIP6929 40147 RESIDUE 1 C TIP
7080 TIP6930 40150 RESIDUE 1 C TIP
7081 TIP6931 40153 RESIDUE 1 C TIP
7082 TIP6932 40156 RESIDUE 1 C TIP
7083 TIP6933 40159 RESIDUE 1 C TIP
7084 TIP6934 40162 RESIDUE 1 C TIP
7085 TIP6935 40165 RESIDUE 1 C TIP
7086 TIP6936 40168 RESIDUE 1 C TIP
7087 TIP6937 40171 RESIDUE 1 C TIP
7088 TIP6938 40174 RESIDUE 1 C TIP
7089 TIP6939 40177 RESIDUE 1 C TIP
7090 TIP6940 40180 RESIDUE 1 C TIP
7091 TIP6941 40183 RESIDUE 1 C TIP
7092 TIP6942 40186 RESIDUE 1 C TIP
7093 TIP6943 40189 RESIDUE 1 C TIP
7094 TIP6944 40192 RESIDUE 1 C TIP
7095 TIP6945 40195 RESIDUE 1 C TIP
7096 TIP6946 40198 RESIDUE 1 C TIP
7097 TIP6947 40201 RESIDUE 1 C TIP
7098 TIP6948 40204 RESIDUE 1 C TIP
7099 TIP6949 40207 RESIDUE 1 C TIP
7100 TIP6950 40210 RESIDUE 1 C TIP
7101 TIP6951 40213 RESIDUE 1 C TIP
7102 TIP6952 40216 RESIDUE 1 C TIP
7103 TIP6953 40219 RESIDUE 1 C TIP
7104 TIP6954 40222 RESIDUE 1 C TIP
7105 TIP6955 40225 RESIDUE 1 C TIP
7106 TIP6956 40228 RESIDUE 1 C TIP
7107 TIP6957 40231 RESIDUE 1 C TIP
7108 TIP6958 40234 RESIDUE 1 C TIP
7109 TIP6959 40237 RESIDUE 1 C TIP
7110 TIP6960 40240 RESIDUE 1 C TIP
7111 TIP6961 40243 RESIDUE 1 C TIP
7112 TIP6962 40246 RESIDUE 1 C TIP
7113 TIP6963 40249 RESIDUE 1 C TIP
7114 TIP6964 40252 RESIDUE 1 C TIP
7115 TIP6965 40255 RESIDUE 1 C TIP
7116 TIP6966 40258 RESIDUE 1 C TIP
7117 TIP6967 40261 RESIDUE 1 C TIP
7118 TIP6968 40264 RESIDUE 1 C TIP
7119 TIP6969 40267 RESIDUE 1 C TIP
7120 TIP6970 40270 RESIDUE 1 C TIP
7121 TIP6971 40273 RESIDUE 1 C TIP
7122 TIP6972 40276 RESIDUE 1 C TIP
7123 TIP6973 40279 RESIDUE 1 C TIP
7124 TIP6974 40282 RESIDUE 1 C TIP
7125 TIP6975 40285 RESIDUE 1 C TIP
7126 TIP6976 40288 RESIDUE 1 C TIP
7127 TIP6977 40291 RESIDUE 1 C TIP
7128 TIP6978 40294 RESIDUE 1 C TIP
7129 TIP6979 40297 RESIDUE 1 C TIP
7130 TIP6980 40300 RESIDUE 1 C TIP
7131 TIP6981 40303 RESIDUE 1 C TIP
7132 TIP6982 40306 RESIDUE 1 C TIP
7133 TIP6983 40309 RESIDUE 1 C TIP
7134 TIP6984 40312 RESIDUE 1 C TIP
7135 TIP6985 40315 RESIDUE 1 C TIP
7136 TIP6986 40318 RESIDUE 1 C TIP
7137 TIP6987 40321 RESIDUE 1 C TIP
7138 TIP6988 40324 RESIDUE 1 C TIP
7139 TIP6989 40327 RESIDUE 1 C TIP
7140 TIP6990 40330 RESIDUE 1 C TIP
7141 TIP6991 40333 RESIDUE 1 C TIP
7142 TIP6992 40336 RESIDUE 1 C TIP
7143 TIP6993 40339 RESIDUE 1 C TIP
7144 TIP6994 40342 RESIDUE 1 C TIP
7145 TIP6995 40345 RESIDUE 1 C TIP
7146 TIP6996 40348 RESIDUE 1 C TIP
7147 TIP6997 40351 RESIDUE 1 C TIP
7148 TIP6998 40354 RESIDUE 1 C TIP
7149 TIP6999 40357 RESIDUE 1 C TIP
7150 TIP7000 40360 RESIDUE 1 C TIP
7151 TIP7001 40363 RESIDUE 1 C TIP
7152 TIP7002 40366 RESIDUE 1 C TIP
7153 TIP7003 40369 RESIDUE 1 C TIP
7154 TIP7004 40372 RESIDUE 1 C TIP
7155 TIP7005 40375 RESIDUE 1 C TIP
7156 TIP7006 40378 RESIDUE 1 C TIP
7157 TIP7007 40381 RESIDUE 1 C TIP
7158 TIP7008 40384 RESIDUE 1 C TIP
7159 TIP7009 40387 RESIDUE 1 C TIP
7160 TIP7010 40390 RESIDUE 1 C TIP
7161 TIP7011 40393 RESIDUE 1 C TIP
7162 TIP7012 40396 RESIDUE 1 C TIP
7163 TIP7013 40399 RESIDUE 1 C TIP
7164 TIP7014 40402 RESIDUE 1 C TIP
7165 TIP7015 40405 RESIDUE 1 C TIP
7166 TIP7016 40408 RESIDUE 1 C TIP
7167 TIP7017 40411 RESIDUE 1 C TIP
7168 TIP7018 40414 RESIDUE 1 C TIP
7169 TIP7019 40417 RESIDUE 1 C TIP
7170 TIP7020 40420 RESIDUE 1 C TIP
7171 TIP7021 40423 RESIDUE 1 C TIP
7172 TIP7022 40426 RESIDUE 1 C TIP
7173 TIP7023 40429 RESIDUE 1 C TIP
7174 TIP7024 40432 RESIDUE 1 C TIP
7175 TIP7025 40435 RESIDUE 1 C TIP
7176 TIP7026 40438 RESIDUE 1 C TIP
7177 TIP7027 40441 RESIDUE 1 C TIP
7178 TIP7028 40444 RESIDUE 1 C TIP
7179 TIP7029 40447 RESIDUE 1 C TIP
7180 TIP7030 40450 RESIDUE 1 C TIP
7181 TIP7031 40453 RESIDUE 1 C TIP
7182 TIP7032 40456 RESIDUE 1 C TIP
7183 TIP7033 40459 RESIDUE 1 C TIP
7184 TIP7034 40462 RESIDUE 1 C TIP
7185 TIP7035 40465 RESIDUE 1 C TIP
7186 TIP7036 40468 RESIDUE 1 C TIP
7187 TIP7037 40471 RESIDUE 1 C TIP
7188 TIP7038 40474 RESIDUE 1 C TIP
7189 TIP7039 40477 RESIDUE 1 C TIP
7190 TIP7040 40480 RESIDUE 1 C TIP
7191 TIP7041 40483 RESIDUE 1 C TIP
7192 TIP7042 40486 RESIDUE 1 C TIP
7193 TIP7043 40489 RESIDUE 1 C TIP
7194 TIP7044 40492 RESIDUE 1 C TIP
7195 TIP7045 40495 RESIDUE 1 C TIP
7196 TIP7046 40498 RESIDUE 1 C TIP
7197 TIP7047 40501 RESIDUE 1 C TIP
7198 TIP7048 40504 RESIDUE 1 C TIP
7199 TIP7049 40507 RESIDUE 1 C TIP
7200 TIP7050 40510 RESIDUE 1 C TIP
7201 TIP7051 40513 RESIDUE 1 C TIP
7202 TIP7052 40516 RESIDUE 1 C TIP
7203 TIP7053 40519 RESIDUE 1 C TIP
7204 TIP7054 40522 RESIDUE 1 C TIP
7205 TIP7055 40525 RESIDUE 1 C TIP
7206 TIP7056 40528 RESIDUE 1 C TIP
7207 TIP7057 40531 RESIDUE 1 C TIP
7208 TIP7058 40534 RESIDUE 1 C TIP
7209 TIP7059 40537 RESIDUE 1 C TIP
7210 TIP7060 40540 RESIDUE 1 C TIP
7211 TIP7061 40543 RESIDUE 1 C TIP
7212 TIP7062 40546 RESIDUE 1 C TIP
7213 TIP7063 40549 RESIDUE 1 C TIP
7214 TIP7064 40552 RESIDUE 1 C TIP
7215 TIP7065 40555 RESIDUE 1 C TIP
7216 TIP7066 40558 RESIDUE 1 C TIP
7217 TIP7067 40561 RESIDUE 1 C TIP
7218 TIP7068 40564 RESIDUE 1 C TIP
7219 TIP7069 40567 RESIDUE 1 C TIP
7220 TIP7070 40570 RESIDUE 1 C TIP
7221 TIP7071 40573 RESIDUE 1 C TIP
7222 TIP7072 40576 RESIDUE 1 C TIP
7223 TIP7073 40579 RESIDUE 1 C TIP
7224 TIP7074 40582 RESIDUE 1 C TIP
7225 TIP7075 40585 RESIDUE 1 C TIP
7226 TIP7076 40588 RESIDUE 1 C TIP
7227 TIP7077 40591 RESIDUE 1 C TIP
7228 TIP7078 40594 RESIDUE 1 C TIP
7229 TIP7079 40597 RESIDUE 1 C TIP
7230 TIP7080 40600 RESIDUE 1 C TIP
7231 TIP7081 40603 RESIDUE 1 C TIP
7232 TIP7082 40606 RESIDUE 1 C TIP
7233 TIP7083 40609 RESIDUE 1 C TIP
7234 TIP7084 40612 RESIDUE 1 C TIP
7235 TIP7085 40615 RESIDUE 1 C TIP
7236 TIP7086 40618 RESIDUE 1 C TIP
7237 TIP7087 40621 RESIDUE 1 C TIP
7238 TIP7088 40624 RESIDUE 1 C TIP
7239 TIP7089 40627 RESIDUE 1 C TIP
7240 TIP7090 40630 RESIDUE 1 C TIP
7241 TIP7091 40633 RESIDUE 1 C TIP
7242 TIP7092 40636 RESIDUE 1 C TIP
7243 TIP7093 40639 RESIDUE 1 C TIP
7244 TIP7094 40642 RESIDUE 1 C TIP
7245 TIP7095 40645 RESIDUE 1 C TIP
7246 TIP7096 40648 RESIDUE 1 C TIP
7247 TIP7097 40651 RESIDUE 1 C TIP
7248 TIP7098 40654 RESIDUE 1 C TIP
7249 TIP7099 40657 RESIDUE 1 C TIP
7250 TIP7100 40660 RESIDUE 1 C TIP
7251 TIP7101 40663 RESIDUE 1 C TIP
7252 TIP7102 40666 RESIDUE 1 C TIP
7253 TIP7103 40669 RESIDUE 1 C TIP
7254 TIP7104 40672 RESIDUE 1 C TIP
7255 TIP7105 40675 RESIDUE 1 C TIP
7256 TIP7106 40678 RESIDUE 1 C TIP
7257 TIP7107 40681 RESIDUE 1 C TIP
7258 TIP7108 40684 RESIDUE 1 C TIP
7259 TIP7109 40687 RESIDUE 1 C TIP
7260 TIP7110 40690 RESIDUE 1 C TIP
7261 TIP7111 40693 RESIDUE 1 C TIP
7262 TIP7112 40696 RESIDUE 1 C TIP
7263 TIP7113 40699 RESIDUE 1 C TIP
7264 TIP7114 40702 RESIDUE 1 C TIP
7265 TIP7115 40705 RESIDUE 1 C TIP
7266 TIP7116 40708 RESIDUE 1 C TIP
7267 TIP7117 40711 RESIDUE 1 C TIP
7268 TIP7118 40714 RESIDUE 1 C TIP
7269 TIP7119 40717 RESIDUE 1 C TIP
7270 TIP7120 40720 RESIDUE 1 C TIP
7271 TIP7121 40723 RESIDUE 1 C TIP
7272 TIP7122 40726 RESIDUE 1 C TIP
7273 TIP7123 40729 RESIDUE 1 C TIP
7274 TIP7124 40732 RESIDUE 1 C TIP
7275 TIP7125 40735 RESIDUE 1 C TIP
7276 TIP7126 40738 RESIDUE 1 C TIP
7277 TIP7127 40741 RESIDUE 1 C TIP
7278 TIP7128 40744 RESIDUE 1 C TIP
7279 TIP7129 40747 RESIDUE 1 C TIP
7280 TIP7130 40750 RESIDUE 1 C TIP
7281 TIP7131 40753 RESIDUE 1 C TIP
7282 TIP7132 40756 RESIDUE 1 C TIP
7283 TIP7133 40759 RESIDUE 1 C TIP
7284 TIP7134 40762 RESIDUE 1 C TIP
7285 TIP7135 40765 RESIDUE 1 C TIP
7286 TIP7136 40768 RESIDUE 1 C TIP
7287 TIP7137 40771 RESIDUE 1 C TIP
7288 TIP7138 40774 RESIDUE 1 C TIP
7289 TIP7139 40777 RESIDUE 1 C TIP
7290 TIP7140 40780 RESIDUE 1 C TIP
7291 TIP7141 40783 RESIDUE 1 C TIP
7292 TIP7142 40786 RESIDUE 1 C TIP
7293 TIP7143 40789 RESIDUE 1 C TIP
7294 TIP7144 40792 RESIDUE 1 C TIP
7295 TIP7145 40795 RESIDUE 1 C TIP
7296 TIP7146 40798 RESIDUE 1 C TIP
7297 TIP7147 40801 RESIDUE 1 C TIP
7298 TIP7148 40804 RESIDUE 1 C TIP
7299 TIP7149 40807 RESIDUE 1 C TIP
7300 TIP7150 40810 RESIDUE 1 C TIP
7301 TIP7151 40813 RESIDUE 1 C TIP
7302 TIP7152 40816 RESIDUE 1 C TIP
7303 TIP7153 40819 RESIDUE 1 C TIP
7304 TIP7154 40822 RESIDUE 1 C TIP
7305 TIP7155 40825 RESIDUE 1 C TIP
7306 TIP7156 40828 RESIDUE 1 C TIP
7307 TIP7157 40831 RESIDUE 1 C TIP
7308 TIP7158 40834 RESIDUE 1 C TIP
7309 TIP7159 40837 RESIDUE 1 C TIP
7310 TIP7160 40840 RESIDUE 1 C TIP
7311 TIP7161 40843 RESIDUE 1 C TIP
7312 TIP7162 40846 RESIDUE 1 C TIP
7313 TIP7163 40849 RESIDUE 1 C TIP
7314 TIP7164 40852 RESIDUE 1 C TIP
7315 TIP7165 40855 RESIDUE 1 C TIP
7316 TIP7166 40858 RESIDUE 1 C TIP
7317 TIP7167 40861 RESIDUE 1 C TIP
7318 TIP7168 40864 RESIDUE 1 C TIP
7319 TIP7169 40867 RESIDUE 1 C TIP
7320 TIP7170 40870 RESIDUE 1 C TIP
7321 TIP7171 40873 RESIDUE 1 C TIP
7322 TIP7172 40876 RESIDUE 1 C TIP
7323 TIP7173 40879 RESIDUE 1 C TIP
7324 TIP7174 40882 RESIDUE 1 C TIP
7325 TIP7175 40885 RESIDUE 1 C TIP
7326 TIP7176 40888 RESIDUE 1 C TIP
7327 TIP7177 40891 RESIDUE 1 C TIP
7328 TIP7178 40894 RESIDUE 1 C TIP
7329 TIP7179 40897 RESIDUE 1 C TIP
7330 TIP7180 40900 RESIDUE 1 C TIP
7331 TIP7181 40903 RESIDUE 1 C TIP
7332 TIP7182 40906 RESIDUE 1 C TIP
7333 TIP7183 40909 RESIDUE 1 C TIP
7334 TIP7184 40912 RESIDUE 1 C TIP
7335 TIP7185 40915 RESIDUE 1 C TIP
7336 TIP7186 40918 RESIDUE 1 C TIP
7337 TIP7187 40921 RESIDUE 1 C TIP
7338 TIP7188 40924 RESIDUE 1 C TIP
7339 TIP7189 40927 RESIDUE 1 C TIP
7340 TIP7190 40930 RESIDUE 1 C TIP
7341 TIP7191 40933 RESIDUE 1 C TIP
7342 TIP7192 40936 RESIDUE 1 C TIP
7343 TIP7193 40939 RESIDUE 1 C TIP
7344 TIP7194 40942 RESIDUE 1 C TIP
7345 TIP7195 40945 RESIDUE 1 C TIP
7346 TIP7196 40948 RESIDUE 1 C TIP
7347 TIP7197 40951 RESIDUE 1 C TIP
7348 TIP7198 40954 RESIDUE 1 C TIP
7349 TIP7199 40957 RESIDUE 1 C TIP
7350 TIP7200 40960 RESIDUE 1 C TIP
7351 TIP7201 40963 RESIDUE 1 C TIP
7352 TIP7202 40966 RESIDUE 1 C TIP
7353 TIP7203 40969 RESIDUE 1 C TIP
7354 TIP7204 40972 RESIDUE 1 C TIP
7355 TIP7205 40975 RESIDUE 1 C TIP
7356 TIP7206 40978 RESIDUE 1 C TIP
7357 TIP7207 40981 RESIDUE 1 C TIP
7358 TIP7208 40984 RESIDUE 1 C TIP
7359 TIP7209 40987 RESIDUE 1 C TIP
7360 TIP7210 40990 RESIDUE 1 C TIP
7361 TIP7211 40993 RESIDUE 1 C TIP
7362 TIP7212 40996 RESIDUE 1 C TIP
7363 TIP7213 40999 RESIDUE 1 C TIP
7364 TIP7214 41002 RESIDUE 1 C TIP
7365 TIP7215 41005 RESIDUE 1 C TIP
7366 TIP7216 41008 RESIDUE 1 C TIP
7367 TIP7217 41011 RESIDUE 1 C TIP
7368 TIP7218 41014 RESIDUE 1 C TIP
7369 TIP7219 41017 RESIDUE 1 C TIP
7370 TIP7220 41020 RESIDUE 1 C TIP
7371 TIP7221 41023 RESIDUE 1 C TIP
7372 TIP7222 41026 RESIDUE 1 C TIP
7373 TIP7223 41029 RESIDUE 1 C TIP
7374 TIP7224 41032 RESIDUE 1 C TIP
7375 TIP7225 41035 RESIDUE 1 C TIP
7376 TIP7226 41038 RESIDUE 1 C TIP
7377 TIP7227 41041 RESIDUE 1 C TIP
7378 TIP7228 41044 RESIDUE 1 C TIP
7379 TIP7229 41047 RESIDUE 1 C TIP
7380 TIP7230 41050 RESIDUE 1 C TIP
7381 TIP7231 41053 RESIDUE 1 C TIP
7382 TIP7232 41056 RESIDUE 1 C TIP
7383 TIP7233 41059 RESIDUE 1 C TIP
7384 TIP7234 41062 RESIDUE 1 C TIP
7385 TIP7235 41065 RESIDUE 1 C TIP
7386 TIP7236 41068 RESIDUE 1 C TIP
7387 TIP7237 41071 RESIDUE 1 C TIP
7388 TIP7238 41074 RESIDUE 1 C TIP
7389 TIP7239 41077 RESIDUE 1 C TIP
7390 TIP7240 41080 RESIDUE 1 C TIP
7391 TIP7241 41083 RESIDUE 1 C TIP
7392 TIP7242 41086 RESIDUE 1 C TIP
7393 TIP7243 41089 RESIDUE 1 C TIP
7394 TIP7244 41092 RESIDUE 1 C TIP
7395 TIP7245 41095 RESIDUE 1 C TIP
7396 TIP7246 41098 RESIDUE 1 C TIP
7397 TIP7247 41101 RESIDUE 1 C TIP
7398 TIP7248 41104 RESIDUE 1 C TIP
7399 TIP7249 41107 RESIDUE 1 C TIP
7400 TIP7250 41110 RESIDUE 1 C TIP
7401 TIP7251 41113 RESIDUE 1 C TIP
7402 TIP7252 41116 RESIDUE 1 C TIP
7403 TIP7253 41119 RESIDUE 1 C TIP
7404 TIP7254 41122 RESIDUE 1 C TIP
7405 TIP7255 41125 RESIDUE 1 C TIP
7406 TIP7256 41128 RESIDUE 1 C TIP
7407 TIP7257 41131 RESIDUE 1 C TIP
7408 TIP7258 41134 RESIDUE 1 C TIP
7409 TIP7259 41137 RESIDUE 1 C TIP
7410 TIP7260 41140 RESIDUE 1 C TIP
7411 TIP7261 41143 RESIDUE 1 C TIP
7412 TIP7262 41146 RESIDUE 1 C TIP
7413 TIP7263 41149 RESIDUE 1 C TIP
7414 TIP7264 41152 RESIDUE 1 C TIP
7415 TIP7265 41155 RESIDUE 1 C TIP
7416 TIP7266 41158 RESIDUE 1 C TIP
7417 TIP7267 41161 RESIDUE 1 C TIP
7418 TIP7268 41164 RESIDUE 1 C TIP
7419 TIP7269 41167 RESIDUE 1 C TIP
7420 TIP7270 41170 RESIDUE 1 C TIP
7421 TIP7271 41173 RESIDUE 1 C TIP
7422 TIP7272 41176 RESIDUE 1 C TIP
7423 TIP7273 41179 RESIDUE 1 C TIP
7424 TIP7274 41182 RESIDUE 1 C TIP
7425 TIP7275 41185 RESIDUE 1 C TIP
7426 TIP7276 41188 RESIDUE 1 C TIP
7427 TIP7277 41191 RESIDUE 1 C TIP
7428 TIP7278 41194 RESIDUE 1 C TIP
7429 TIP7279 41197 RESIDUE 1 C TIP
7430 TIP7280 41200 RESIDUE 1 C TIP
7431 TIP7281 41203 RESIDUE 1 C TIP
7432 TIP7282 41206 RESIDUE 1 C TIP
7433 TIP7283 41209 RESIDUE 1 C TIP
7434 TIP7284 41212 RESIDUE 1 C TIP
7435 TIP7285 41215 RESIDUE 1 C TIP
7436 TIP7286 41218 RESIDUE 1 C TIP
7437 TIP7287 41221 RESIDUE 1 C TIP
7438 TIP7288 41224 RESIDUE 1 C TIP
7439 TIP7289 41227 RESIDUE 1 C TIP
7440 TIP7290 41230 RESIDUE 1 C TIP
7441 TIP7291 41233 RESIDUE 1 C TIP
7442 TIP7292 41236 RESIDUE 1 C TIP
7443 TIP7293 41239 RESIDUE 1 C TIP
7444 TIP7294 41242 RESIDUE 1 C TIP
7445 TIP7295 41245 RESIDUE 1 C TIP
7446 TIP7296 41248 RESIDUE 1 C TIP
7447 TIP7297 41251 RESIDUE 1 C TIP
7448 TIP7298 41254 RESIDUE 1 C TIP
7449 TIP7299 41257 RESIDUE 1 C TIP
7450 TIP7300 41260 RESIDUE 1 C TIP
7451 TIP7301 41263 RESIDUE 1 C TIP
7452 TIP7302 41266 RESIDUE 1 C TIP
7453 TIP7303 41269 RESIDUE 1 C TIP
7454 TIP7304 41272 RESIDUE 1 C TIP
7455 TIP7305 41275 RESIDUE 1 C TIP
7456 TIP7306 41278 RESIDUE 1 C TIP
7457 TIP7307 41281 RESIDUE 1 C TIP
7458 TIP7308 41284 RESIDUE 1 C TIP
7459 TIP7309 41287 RESIDUE 1 C TIP
7460 TIP7310 41290 RESIDUE 1 C TIP
7461 TIP7311 41293 RESIDUE 1 C TIP
7462 TIP7312 41296 RESIDUE 1 C TIP
7463 TIP7313 41299 RESIDUE 1 C TIP
7464 TIP7314 41302 RESIDUE 1 C TIP
7465 TIP7315 41305 RESIDUE 1 C TIP
7466 TIP7316 41308 RESIDUE 1 C TIP
7467 TIP7317 41311 RESIDUE 1 C TIP
7468 TIP7318 41314 RESIDUE 1 C TIP
7469 TIP7319 41317 RESIDUE 1 C TIP
7470 TIP7320 41320 RESIDUE 1 C TIP
7471 TIP7321 41323 RESIDUE 1 C TIP
7472 TIP7322 41326 RESIDUE 1 C TIP
7473 TIP7323 41329 RESIDUE 1 C TIP
7474 TIP7324 41332 RESIDUE 1 C TIP
7475 TIP7325 41335 RESIDUE 1 C TIP
7476 TIP7326 41338 RESIDUE 1 C TIP
7477 TIP7327 41341 RESIDUE 1 C TIP
7478 TIP7328 41344 RESIDUE 1 C TIP
7479 TIP7329 41347 RESIDUE 1 C TIP
7480 TIP7330 41350 RESIDUE 1 C TIP
7481 TIP7331 41353 RESIDUE 1 C TIP
7482 TIP7332 41356 RESIDUE 1 C TIP
7483 TIP7333 41359 RESIDUE 1 C TIP
7484 TIP7334 41362 RESIDUE 1 C TIP
7485 TIP7335 41365 RESIDUE 1 C TIP
7486 TIP7336 41368 RESIDUE 1 C TIP
7487 TIP7337 41371 RESIDUE 1 C TIP
7488 TIP7338 41374 RESIDUE 1 C TIP
7489 TIP7339 41377 RESIDUE 1 C TIP
7490 TIP7340 41380 RESIDUE 1 C TIP
7491 TIP7341 41383 RESIDUE 1 C TIP
7492 TIP7342 41386 RESIDUE 1 C TIP
7493 TIP7343 41389 RESIDUE 1 C TIP
7494 TIP7344 41392 RESIDUE 1 C TIP
7495 TIP7345 41395 RESIDUE 1 C TIP
7496 TIP7346 41398 RESIDUE 1 C TIP
7497 TIP7347 41401 RESIDUE 1 C TIP
7498 TIP7348 41404 RESIDUE 1 C TIP
7499 TIP7349 41407 RESIDUE 1 C TIP
7500 TIP7350 41410 RESIDUE 1 C TIP
7501 TIP7351 41413 RESIDUE 1 C TIP
7502 TIP7352 41416 RESIDUE 1 C TIP
7503 TIP7353 41419 RESIDUE 1 C TIP
7504 TIP7354 41422 RESIDUE 1 C TIP
7505 TIP7355 41425 RESIDUE 1 C TIP
7506 TIP7356 41428 RESIDUE 1 C TIP
7507 TIP7357 41431 RESIDUE 1 C TIP
7508 TIP7358 41434 RESIDUE 1 C TIP
7509 TIP7359 41437 RESIDUE 1 C TIP
7510 TIP7360 41440 RESIDUE 1 C TIP
7511 TIP7361 41443 RESIDUE 1 C TIP
7512 TIP7362 41446 RESIDUE 1 C TIP
7513 TIP7363 41449 RESIDUE 1 C TIP
7514 TIP7364 41452 RESIDUE 1 C TIP
7515 TIP7365 41455 RESIDUE 1 C TIP
7516 TIP7366 41458 RESIDUE 1 C TIP
7517 TIP7367 41461 RESIDUE 1 C TIP
7518 TIP7368 41464 RESIDUE 1 C TIP
7519 TIP7369 41467 RESIDUE 1 C TIP
7520 TIP7370 41470 RESIDUE 1 C TIP
7521 TIP7371 41473 RESIDUE 1 C TIP
7522 TIP7372 41476 RESIDUE 1 C TIP
7523 TIP7373 41479 RESIDUE 1 C TIP
7524 TIP7374 41482 RESIDUE 1 C TIP
7525 TIP7375 41485 RESIDUE 1 C TIP
7526 TIP7376 41488 RESIDUE 1 C TIP
7527 TIP7377 41491 RESIDUE 1 C TIP
7528 TIP7378 41494 RESIDUE 1 C TIP
7529 TIP7379 41497 RESIDUE 1 C TIP
7530 TIP7380 41500 RESIDUE 1 C TIP
7531 TIP7381 41503 RESIDUE 1 C TIP
7532 TIP7382 41506 RESIDUE 1 C TIP
7533 TIP7383 41509 RESIDUE 1 C TIP
7534 TIP7384 41512 RESIDUE 1 C TIP
7535 TIP7385 41515 RESIDUE 1 C TIP
7536 TIP7386 41518 RESIDUE 1 C TIP
7537 TIP7387 41521 RESIDUE 1 C TIP
7538 TIP7388 41524 RESIDUE 1 C TIP
7539 TIP7389 41527 RESIDUE 1 C TIP
7540 TIP7390 41530 RESIDUE 1 C TIP
7541 TIP7391 41533 RESIDUE 1 C TIP
7542 TIP7392 41536 RESIDUE 1 C TIP
7543 TIP7393 41539 RESIDUE 1 C TIP
7544 TIP7394 41542 RESIDUE 1 C TIP
7545 TIP7395 41545 RESIDUE 1 C TIP
7546 TIP7396 41548 RESIDUE 1 C TIP
7547 TIP7397 41551 RESIDUE 1 C TIP
7548 TIP7398 41554 RESIDUE 1 C TIP
7549 TIP7399 41557 RESIDUE 1 C TIP
7550 TIP7400 41560 RESIDUE 1 C TIP
7551 TIP7401 41563 RESIDUE 1 C TIP
7552 TIP7402 41566 RESIDUE 1 C TIP
7553 TIP7403 41569 RESIDUE 1 C TIP
7554 TIP7404 41572 RESIDUE 1 C TIP
7555 TIP7405 41575 RESIDUE 1 C TIP
7556 TIP7406 41578 RESIDUE 1 C TIP
7557 TIP7407 41581 RESIDUE 1 C TIP
7558 TIP7408 41584 RESIDUE 1 C TIP
7559 TIP7409 41587 RESIDUE 1 C TIP
7560 TIP7410 41590 RESIDUE 1 C TIP
7561 TIP7411 41593 RESIDUE 1 C TIP
7562 TIP7412 41596 RESIDUE 1 C TIP
7563 TIP7413 41599 RESIDUE 1 C TIP
7564 TIP7414 41602 RESIDUE 1 C TIP
7565 TIP7415 41605 RESIDUE 1 C TIP
7566 TIP7416 41608 RESIDUE 1 C TIP
7567 TIP7417 41611 RESIDUE 1 C TIP
7568 TIP7418 41614 RESIDUE 1 C TIP
7569 TIP7419 41617 RESIDUE 1 C TIP
7570 TIP7420 41620 RESIDUE 1 C TIP
7571 TIP7421 41623 RESIDUE 1 C TIP
7572 TIP7422 41626 RESIDUE 1 C TIP
7573 TIP7423 41629 RESIDUE 1 C TIP
7574 TIP7424 41632 RESIDUE 1 C TIP
7575 TIP7425 41635 RESIDUE 1 C TIP
7576 TIP7426 41638 RESIDUE 1 C TIP
7577 TIP7427 41641 RESIDUE 1 C TIP
7578 TIP7428 41644 RESIDUE 1 C TIP
7579 TIP7429 41647 RESIDUE 1 C TIP
7580 TIP7430 41650 RESIDUE 1 C TIP
7581 TIP7431 41653 RESIDUE 1 C TIP
7582 TIP7432 41656 RESIDUE 1 C TIP
7583 TIP7433 41659 RESIDUE 1 C TIP
7584 TIP7434 41662 RESIDUE 1 C TIP
7585 TIP7435 41665 RESIDUE 1 C TIP
7586 TIP7436 41668 RESIDUE 1 C TIP
7587 TIP7437 41671 RESIDUE 1 C TIP
7588 TIP7438 41674 RESIDUE 1 C TIP
7589 TIP7439 41677 RESIDUE 1 C TIP
7590 TIP7440 41680 RESIDUE 1 C TIP
7591 TIP7441 41683 RESIDUE 1 C TIP
7592 TIP7442 41686 RESIDUE 1 C TIP
7593 TIP7443 41689 RESIDUE 1 C TIP
7594 TIP7444 41692 RESIDUE 1 C TIP
7595 TIP7445 41695 RESIDUE 1 C TIP
7596 TIP7446 41698 RESIDUE 1 C TIP
7597 TIP7447 41701 RESIDUE 1 C TIP
7598 TIP7448 41704 RESIDUE 1 C TIP
7599 TIP7449 41707 RESIDUE 1 C TIP
7600 TIP7450 41710 RESIDUE 1 C TIP
7601 TIP7451 41713 RESIDUE 1 C TIP
7602 TIP7452 41716 RESIDUE 1 C TIP
7603 TIP7453 41719 RESIDUE 1 C TIP
7604 TIP7454 41722 RESIDUE 1 C TIP
7605 TIP7455 41725 RESIDUE 1 C TIP
7606 TIP7456 41728 RESIDUE 1 C TIP
7607 TIP7457 41731 RESIDUE 1 C TIP
7608 TIP7458 41734 RESIDUE 1 C TIP
7609 TIP7459 41737 RESIDUE 1 C TIP
7610 TIP7460 41740 RESIDUE 1 C TIP
7611 TIP7461 41743 RESIDUE 1 C TIP
7612 TIP7462 41746 RESIDUE 1 C TIP
7613 TIP7463 41749 RESIDUE 1 C TIP
7614 TIP7464 41752 RESIDUE 1 C TIP
7615 TIP7465 41755 RESIDUE 1 C TIP
7616 TIP7466 41758 RESIDUE 1 C TIP
7617 TIP7467 41761 RESIDUE 1 C TIP
7618 TIP7468 41764 RESIDUE 1 C TIP
7619 TIP7469 41767 RESIDUE 1 C TIP
7620 TIP7470 41770 RESIDUE 1 C TIP
7621 TIP7471 41773 RESIDUE 1 C TIP
7622 TIP7472 41776 RESIDUE 1 C TIP
7623 TIP7473 41779 RESIDUE 1 C TIP
7624 TIP7474 41782 RESIDUE 1 C TIP
7625 TIP7475 41785 RESIDUE 1 C TIP
7626 TIP7476 41788 RESIDUE 1 C TIP
7627 TIP7477 41791 RESIDUE 1 C TIP
7628 TIP7478 41794 RESIDUE 1 C TIP
7629 TIP7479 41797 RESIDUE 1 C TIP
7630 TIP7480 41800 RESIDUE 1 C TIP
7631 TIP7481 41803 RESIDUE 1 C TIP
7632 TIP7482 41806 RESIDUE 1 C TIP
7633 TIP7483 41809 RESIDUE 1 C TIP
7634 TIP7484 41812 RESIDUE 1 C TIP
7635 TIP7485 41815 RESIDUE 1 C TIP
7636 TIP7486 41818 RESIDUE 1 C TIP
7637 TIP7487 41821 RESIDUE 1 C TIP
7638 TIP7488 41824 RESIDUE 1 C TIP
7639 TIP7489 41827 RESIDUE 1 C TIP
7640 TIP7490 41830 RESIDUE 1 C TIP
7641 TIP7491 41833 RESIDUE 1 C TIP
7642 TIP7492 41836 RESIDUE 1 C TIP
7643 TIP7493 41839 RESIDUE 1 C TIP
7644 TIP7494 41842 RESIDUE 1 C TIP
7645 TIP7495 41845 RESIDUE 1 C TIP
7646 TIP7496 41848 RESIDUE 1 C TIP
7647 TIP7497 41851 RESIDUE 1 C TIP
7648 TIP7498 41854 RESIDUE 1 C TIP
7649 TIP7499 41857 RESIDUE 1 C TIP
7650 TIP7500 41860 RESIDUE 1 C TIP
7651 TIP7501 41863 RESIDUE 1 C TIP
7652 TIP7502 41866 RESIDUE 1 C TIP
7653 TIP7503 41869 RESIDUE 1 C TIP
7654 TIP7504 41872 RESIDUE 1 C TIP
7655 TIP7505 41875 RESIDUE 1 C TIP
7656 TIP7506 41878 RESIDUE 1 C TIP
7657 TIP7507 41881 RESIDUE 1 C TIP
7658 TIP7508 41884 RESIDUE 1 C TIP
7659 TIP7509 41887 RESIDUE 1 C TIP
7660 TIP7510 41890 RESIDUE 1 C TIP
7661 TIP7511 41893 RESIDUE 1 C TIP
7662 TIP7512 41896 RESIDUE 1 C TIP
7663 TIP7513 41899 RESIDUE 1 C TIP
7664 TIP7514 41902 RESIDUE 1 C TIP
7665 TIP7515 41905 RESIDUE 1 C TIP
7666 TIP7516 41908 RESIDUE 1 C TIP
7667 TIP7517 41911 RESIDUE 1 C TIP
7668 TIP7518 41914 RESIDUE 1 C TIP
7669 TIP7519 41917 RESIDUE 1 C TIP
7670 TIP7520 41920 RESIDUE 1 C TIP
7671 TIP7521 41923 RESIDUE 1 C TIP
7672 TIP7522 41926 RESIDUE 1 C TIP
7673 TIP7523 41929 RESIDUE 1 C TIP
7674 TIP7524 41932 RESIDUE 1 C TIP
7675 TIP7525 41935 RESIDUE 1 C TIP
7676 TIP7526 41938 RESIDUE 1 C TIP
7677 TIP7527 41941 RESIDUE 1 C TIP
7678 TIP7528 41944 RESIDUE 1 C TIP
7679 TIP7529 41947 RESIDUE 1 C TIP
7680 TIP7530 41950 RESIDUE 1 C TIP
7681 TIP7531 41953 RESIDUE 1 C TIP
7682 TIP7532 41956 RESIDUE 1 C TIP
7683 TIP7533 41959 RESIDUE 1 C TIP
7684 TIP7534 41962 RESIDUE 1 C TIP
7685 TIP7535 41965 RESIDUE 1 C TIP
7686 TIP7536 41968 RESIDUE 1 C TIP
7687 TIP7537 41971 RESIDUE 1 C TIP
7688 TIP7538 41974 RESIDUE 1 C TIP
7689 TIP7539 41977 RESIDUE 1 C TIP
7690 TIP7540 41980 RESIDUE 1 C TIP
7691 TIP7541 41983 RESIDUE 1 C TIP
7692 TIP7542 41986 RESIDUE 1 C TIP
7693 TIP7543 41989 RESIDUE 1 C TIP
7694 TIP7544 41992 RESIDUE 1 C TIP
7695 TIP7545 41995 RESIDUE 1 C TIP
7696 TIP7546 41998 RESIDUE 1 C TIP
7697 TIP7547 42001 RESIDUE 1 C TIP
7698 TIP7548 42004 RESIDUE 1 C TIP
7699 TIP7549 42007 RESIDUE 1 C TIP
7700 TIP7550 42010 RESIDUE 1 C TIP
7701 TIP7551 42013 RESIDUE 1 C TIP
7702 TIP7552 42016 RESIDUE 1 C TIP
7703 TIP7553 42019 RESIDUE 1 C TIP
7704 TIP7554 42022 RESIDUE 1 C TIP
7705 TIP7555 42025 RESIDUE 1 C TIP
7706 TIP7556 42028 RESIDUE 1 C TIP
7707 TIP7557 42031 RESIDUE 1 C TIP
7708 TIP7558 42034 RESIDUE 1 C TIP
7709 TIP7559 42037 RESIDUE 1 C TIP
7710 TIP7560 42040 RESIDUE 1 C TIP
7711 TIP7561 42043 RESIDUE 1 C TIP
7712 TIP7562 42046 RESIDUE 1 C TIP
7713 TIP7563 42049 RESIDUE 1 C TIP
7714 TIP7564 42052 RESIDUE 1 C TIP
7715 TIP7565 42055 RESIDUE 1 C TIP
7716 TIP7566 42058 RESIDUE 1 C TIP
7717 TIP7567 42061 RESIDUE 1 C TIP
7718 TIP7568 42064 RESIDUE 1 C TIP
7719 TIP7569 42067 RESIDUE 1 C TIP
7720 TIP7570 42070 RESIDUE 1 C TIP
7721 TIP7571 42073 RESIDUE 1 C TIP
7722 TIP7572 42076 RESIDUE 1 C TIP
7723 TIP7573 42079 RESIDUE 1 C TIP
7724 TIP7574 42082 RESIDUE 1 C TIP
7725 TIP7575 42085 RESIDUE 1 C TIP
7726 TIP7576 42088 RESIDUE 1 C TIP
7727 TIP7577 42091 RESIDUE 1 C TIP
7728 TIP7578 42094 RESIDUE 1 C TIP
7729 TIP7579 42097 RESIDUE 1 C TIP
7730 TIP7580 42100 RESIDUE 1 C TIP
7731 TIP7581 42103 RESIDUE 1 C TIP
7732 TIP7582 42106 RESIDUE 1 C TIP
7733 TIP7583 42109 RESIDUE 1 C TIP
7734 TIP7584 42112 RESIDUE 1 C TIP
7735 TIP7585 42115 RESIDUE 1 C TIP
7736 TIP7586 42118 RESIDUE 1 C TIP
7737 TIP7587 42121 RESIDUE 1 C TIP
7738 TIP7588 42124 RESIDUE 1 C TIP
7739 TIP7589 42127 RESIDUE 1 C TIP
7740 TIP7590 42130 RESIDUE 1 C TIP
7741 TIP7591 42133 RESIDUE 1 C TIP
7742 TIP7592 42136 RESIDUE 1 C TIP
7743 TIP7593 42139 RESIDUE 1 C TIP
7744 TIP7594 42142 RESIDUE 1 C TIP
7745 TIP7595 42145 RESIDUE 1 C TIP
7746 TIP7596 42148 RESIDUE 1 C TIP
7747 TIP7597 42151 RESIDUE 1 C TIP
7748 TIP7598 42154 RESIDUE 1 C TIP
7749 TIP7599 42157 RESIDUE 1 C TIP
7750 TIP7600 42160 RESIDUE 1 C TIP
7751 TIP7601 42163 RESIDUE 1 C TIP
7752 TIP7602 42166 RESIDUE 1 C TIP
7753 TIP7603 42169 RESIDUE 1 C TIP
7754 TIP7604 42172 RESIDUE 1 C TIP
7755 TIP7605 42175 RESIDUE 1 C TIP
7756 TIP7606 42178 RESIDUE 1 C TIP
7757 TIP7607 42181 RESIDUE 1 C TIP
7758 TIP7608 42184 RESIDUE 1 C TIP
7759 TIP7609 42187 RESIDUE 1 C TIP
7760 TIP7610 42190 RESIDUE 1 C TIP
7761 TIP7611 42193 RESIDUE 1 C TIP
7762 TIP7612 42196 RESIDUE 1 C TIP
7763 TIP7613 42199 RESIDUE 1 C TIP
7764 TIP7614 42202 RESIDUE 1 C TIP
7765 TIP7615 42205 RESIDUE 1 C TIP
7766 TIP7616 42208 RESIDUE 1 C TIP
7767 TIP7617 42211 RESIDUE 1 C TIP
7768 TIP7618 42214 RESIDUE 1 C TIP
7769 TIP7619 42217 RESIDUE 1 C TIP
7770 TIP7620 42220 RESIDUE 1 C TIP
7771 TIP7621 42223 RESIDUE 1 C TIP
7772 TIP7622 42226 RESIDUE 1 C TIP
7773 TIP7623 42229 RESIDUE 1 C TIP
7774 TIP7624 42232 RESIDUE 1 C TIP
7775 TIP7625 42235 RESIDUE 1 C TIP
7776 TIP7626 42238 RESIDUE 1 C TIP
7777 TIP7627 42241 RESIDUE 1 C TIP
7778 TIP7628 42244 RESIDUE 1 C TIP
7779 TIP7629 42247 RESIDUE 1 C TIP
7780 TIP7630 42250 RESIDUE 1 C TIP
7781 TIP7631 42253 RESIDUE 1 C TIP
7782 TIP7632 42256 RESIDUE 1 C TIP
7783 TIP7633 42259 RESIDUE 1 C TIP
7784 TIP7634 42262 RESIDUE 1 C TIP
7785 TIP7635 42265 RESIDUE 1 C TIP
7786 TIP7636 42268 RESIDUE 1 C TIP
7787 TIP7637 42271 RESIDUE 1 C TIP
7788 TIP7638 42274 RESIDUE 1 C TIP
7789 TIP7639 42277 RESIDUE 1 C TIP
7790 TIP7640 42280 RESIDUE 1 C TIP
7791 TIP7641 42283 RESIDUE 1 C TIP
7792 TIP7642 42286 RESIDUE 1 C TIP
7793 TIP7643 42289 RESIDUE 1 C TIP
7794 TIP7644 42292 RESIDUE 1 C TIP
7795 TIP7645 42295 RESIDUE 1 C TIP
7796 TIP7646 42298 RESIDUE 1 C TIP
7797 TIP7647 42301 RESIDUE 1 C TIP
7798 TIP7648 42304 RESIDUE 1 C TIP
7799 TIP7649 42307 RESIDUE 1 C TIP
7800 TIP7650 42310 RESIDUE 1 C TIP
7801 TIP7651 42313 RESIDUE 1 C TIP
7802 TIP7652 42316 RESIDUE 1 C TIP
7803 TIP7653 42319 RESIDUE 1 C TIP
7804 TIP7654 42322 RESIDUE 1 C TIP
7805 TIP7655 42325 RESIDUE 1 C TIP
7806 TIP7656 42328 RESIDUE 1 C TIP
7807 TIP7657 42331 RESIDUE 1 C TIP
7808 TIP7658 42334 RESIDUE 1 C TIP
7809 TIP7659 42337 RESIDUE 1 C TIP
7810 TIP7660 42340 RESIDUE 1 C TIP
7811 TIP7661 42343 RESIDUE 1 C TIP
7812 TIP7662 42346 RESIDUE 1 C TIP
7813 TIP7663 42349 RESIDUE 1 C TIP
7814 TIP7664 42352 RESIDUE 1 C TIP
7815 TIP7665 42355 RESIDUE 1 C TIP
7816 TIP7666 42358 RESIDUE 1 C TIP
7817 TIP7667 42361 RESIDUE 1 C TIP
7818 TIP7668 42364 RESIDUE 1 C TIP
7819 TIP7669 42367 RESIDUE 1 C TIP
7820 TIP7670 42370 RESIDUE 1 C TIP
7821 TIP7671 42373 RESIDUE 1 C TIP
7822 TIP7672 42376 RESIDUE 1 C TIP
7823 TIP7673 42379 RESIDUE 1 C TIP
7824 TIP7674 42382 RESIDUE 1 C TIP
7825 TIP7675 42385 RESIDUE 1 C TIP
7826 TIP7676 42388 RESIDUE 1 C TIP
7827 TIP7677 42391 RESIDUE 1 C TIP
7828 TIP7678 42394 RESIDUE 1 C TIP
7829 TIP7679 42397 RESIDUE 1 C TIP
7830 TIP7680 42400 RESIDUE 1 C TIP
7831 TIP7681 42403 RESIDUE 1 C TIP
7832 TIP7682 42406 RESIDUE 1 C TIP
7833 TIP7683 42409 RESIDUE 1 C TIP
7834 TIP7684 42412 RESIDUE 1 C TIP
7835 TIP7685 42415 RESIDUE 1 C TIP
7836 TIP7686 42418 RESIDUE 1 C TIP
7837 TIP7687 42421 RESIDUE 1 C TIP
7838 TIP7688 42424 RESIDUE 1 C TIP
7839 TIP7689 42427 RESIDUE 1 C TIP
7840 TIP7690 42430 RESIDUE 1 C TIP
7841 TIP7691 42433 RESIDUE 1 C TIP
7842 TIP7692 42436 RESIDUE 1 C TIP
7843 TIP7693 42439 RESIDUE 1 C TIP
7844 TIP7694 42442 RESIDUE 1 C TIP
7845 TIP7695 42445 RESIDUE 1 C TIP
7846 TIP7696 42448 RESIDUE 1 C TIP
7847 TIP7697 42451 RESIDUE 1 C TIP
7848 TIP7698 42454 RESIDUE 1 C TIP
7849 TIP7699 42457 RESIDUE 1 C TIP
7850 TIP7700 42460 RESIDUE 1 C TIP
7851 TIP7701 42463 RESIDUE 1 C TIP
7852 TIP7702 42466 RESIDUE 1 C TIP
7853 TIP7703 42469 RESIDUE 1 C TIP
7854 TIP7704 42472 RESIDUE 1 C TIP
7855 TIP7705 42475 RESIDUE 1 C TIP
7856 TIP7706 42478 RESIDUE 1 C TIP
7857 TIP7707 42481 RESIDUE 1 C TIP
7858 TIP7708 42484 RESIDUE 1 C TIP
7859 TIP7709 42487 RESIDUE 1 C TIP
7860 TIP7710 42490 RESIDUE 1 C TIP
7861 TIP7711 42493 RESIDUE 1 C TIP
7862 TIP7712 42496 RESIDUE 1 C TIP
7863 TIP7713 42499 RESIDUE 1 C TIP
7864 TIP7714 42502 RESIDUE 1 C TIP
7865 TIP7715 42505 RESIDUE 1 C TIP
7866 TIP7716 42508 RESIDUE 1 C TIP
7867 TIP7717 42511 RESIDUE 1 C TIP
7868 TIP7718 42514 RESIDUE 1 C TIP
7869 TIP7719 42517 RESIDUE 1 C TIP
7870 TIP7720 42520 RESIDUE 1 C TIP
7871 TIP7721 42523 RESIDUE 1 C TIP
7872 TIP7722 42526 RESIDUE 1 C TIP
7873 TIP7723 42529 RESIDUE 1 C TIP
7874 TIP7724 42532 RESIDUE 1 C TIP
7875 TIP7725 42535 RESIDUE 1 C TIP
7876 TIP7726 42538 RESIDUE 1 C TIP
7877 TIP7727 42541 RESIDUE 1 C TIP
7878 TIP7728 42544 RESIDUE 1 C TIP
7879 TIP7729 42547 RESIDUE 1 C TIP
7880 TIP7730 42550 RESIDUE 1 C TIP
7881 TIP7731 42553 RESIDUE 1 C TIP
7882 TIP7732 42556 RESIDUE 1 C TIP
7883 TIP7733 42559 RESIDUE 1 C TIP
7884 TIP7734 42562 RESIDUE 1 C TIP
7885 TIP7735 42565 RESIDUE 1 C TIP
7886 TIP7736 42568 RESIDUE 1 C TIP
7887 TIP7737 42571 RESIDUE 1 C TIP
7888 TIP7738 42574 RESIDUE 1 C TIP
7889 TIP7739 42577 RESIDUE 1 C TIP
7890 TIP7740 42580 RESIDUE 1 C TIP
7891 TIP7741 42583 RESIDUE 1 C TIP
7892 TIP7742 42586 RESIDUE 1 C TIP
7893 TIP7743 42589 RESIDUE 1 C TIP
7894 TIP7744 42592 RESIDUE 1 C TIP
7895 TIP7745 42595 RESIDUE 1 C TIP
7896 TIP7746 42598 RESIDUE 1 C TIP
7897 TIP7747 42601 RESIDUE 1 C TIP
7898 TIP7748 42604 RESIDUE 1 C TIP
7899 TIP7749 42607 RESIDUE 1 C TIP
7900 TIP7750 42610 RESIDUE 1 C TIP
7901 TIP7751 42613 RESIDUE 1 C TIP
7902 TIP7752 42616 RESIDUE 1 C TIP
7903 TIP7753 42619 RESIDUE 1 C TIP
7904 TIP7754 42622 RESIDUE 1 C TIP
7905 TIP7755 42625 RESIDUE 1 C TIP
7906 TIP7756 42628 RESIDUE 1 C TIP
7907 TIP7757 42631 RESIDUE 1 C TIP
7908 TIP7758 42634 RESIDUE 1 C TIP
7909 TIP7759 42637 RESIDUE 1 C TIP
7910 TIP7760 42640 RESIDUE 1 C TIP
7911 TIP7761 42643 RESIDUE 1 C TIP
7912 TIP7762 42646 RESIDUE 1 C TIP
7913 TIP7763 42649 RESIDUE 1 C TIP
7914 TIP7764 42652 RESIDUE 1 C TIP
7915 TIP7765 42655 RESIDUE 1 C TIP
7916 TIP7766 42658 RESIDUE 1 C TIP
7917 TIP7767 42661 RESIDUE 1 C TIP
7918 TIP7768 42664 RESIDUE 1 C TIP
7919 TIP7769 42667 RESIDUE 1 C TIP
7920 TIP7770 42670 RESIDUE 1 C TIP
7921 TIP7771 42673 RESIDUE 1 C TIP
7922 TIP7772 42676 RESIDUE 1 C TIP
7923 TIP7773 42679 RESIDUE 1 C TIP
7924 TIP7774 42682 RESIDUE 1 C TIP
7925 TIP7775 42685 RESIDUE 1 C TIP
7926 TIP7776 42688 RESIDUE 1 C TIP
7927 TIP7777 42691 RESIDUE 1 C TIP
7928 TIP7778 42694 RESIDUE 1 C TIP
7929 TIP7779 42697 RESIDUE 1 C TIP
7930 TIP7780 42700 RESIDUE 1 C TIP
7931 TIP7781 42703 RESIDUE 1 C TIP
7932 TIP7782 42706 RESIDUE 1 C TIP
7933 TIP7783 42709 RESIDUE 1 C TIP
7934 TIP7784 42712 RESIDUE 1 C TIP
7935 TIP7785 42715 RESIDUE 1 C TIP
7936 TIP7786 42718 RESIDUE 1 C TIP
7937 TIP7787 42721 RESIDUE 1 C TIP
7938 TIP7788 42724 RESIDUE 1 C TIP
7939 TIP7789 42727 RESIDUE 1 C TIP
7940 TIP7790 42730 RESIDUE 1 C TIP
7941 TIP7791 42733 RESIDUE 1 C TIP
7942 TIP7792 42736 RESIDUE 1 C TIP
7943 TIP7793 42739 RESIDUE 1 C TIP
7944 TIP7794 42742 RESIDUE 1 C TIP
7945 TIP7795 42745 RESIDUE 1 C TIP
7946 TIP7796 42748 RESIDUE 1 C TIP
7947 TIP7797 42751 RESIDUE 1 C TIP
7948 TIP7798 42754 RESIDUE 1 C TIP
7949 TIP7799 42757 RESIDUE 1 C TIP
7950 TIP7800 42760 RESIDUE 1 C TIP
7951 TIP7801 42763 RESIDUE 1 C TIP
7952 TIP7802 42766 RESIDUE 1 C TIP
7953 TIP7803 42769 RESIDUE 1 C TIP
7954 TIP7804 42772 RESIDUE 1 C TIP
7955 TIP7805 42775 RESIDUE 1 C TIP
7956 TIP7806 42778 RESIDUE 1 C TIP
7957 TIP7807 42781 RESIDUE 1 C TIP
7958 TIP7808 42784 RESIDUE 1 C TIP
7959 TIP7809 42787 RESIDUE 1 C TIP
7960 TIP7810 42790 RESIDUE 1 C TIP
7961 TIP7811 42793 RESIDUE 1 C TIP
7962 TIP7812 42796 RESIDUE 1 C TIP
7963 TIP7813 42799 RESIDUE 1 C TIP
7964 TIP7814 42802 RESIDUE 1 C TIP
7965 TIP7815 42805 RESIDUE 1 C TIP
7966 TIP7816 42808 RESIDUE 1 C TIP
7967 TIP7817 42811 RESIDUE 1 C TIP
7968 TIP7818 42814 RESIDUE 1 C TIP
7969 TIP7819 42817 RESIDUE 1 C TIP
7970 TIP7820 42820 RESIDUE 1 C TIP
7971 TIP7821 42823 RESIDUE 1 C TIP
7972 TIP7822 42826 RESIDUE 1 C TIP
7973 TIP7823 42829 RESIDUE 1 C TIP
7974 TIP7824 42832 RESIDUE 1 C TIP
7975 TIP7825 42835 RESIDUE 1 C TIP
7976 TIP7826 42838 RESIDUE 1 C TIP
7977 TIP7827 42841 RESIDUE 1 C TIP
7978 TIP7828 42844 RESIDUE 1 C TIP
7979 TIP7829 42847 RESIDUE 1 C TIP
7980 TIP7830 42850 RESIDUE 1 C TIP
7981 TIP7831 42853 RESIDUE 1 C TIP
7982 TIP7832 42856 RESIDUE 1 C TIP
7983 TIP7833 42859 RESIDUE 1 C TIP
7984 TIP7834 42862 RESIDUE 1 C TIP
7985 TIP7835 42865 RESIDUE 1 C TIP
7986 TIP7836 42868 RESIDUE 1 C TIP
7987 TIP7837 42871 RESIDUE 1 C TIP
7988 TIP7838 42874 RESIDUE 1 C TIP
7989 TIP7839 42877 RESIDUE 1 C TIP
7990 TIP7840 42880 RESIDUE 1 C TIP
7991 TIP7841 42883 RESIDUE 1 C TIP
7992 TIP7842 42886 RESIDUE 1 C TIP
7993 TIP7843 42889 RESIDUE 1 C TIP
7994 TIP7844 42892 RESIDUE 1 C TIP
7995 TIP7845 42895 RESIDUE 1 C TIP
7996 TIP7846 42898 RESIDUE 1 C TIP
7997 TIP7847 42901 RESIDUE 1 C TIP
7998 TIP7848 42904 RESIDUE 1 C TIP
7999 TIP7849 42907 RESIDUE 1 C TIP
8000 TIP7850 42910 RESIDUE 1 C TIP
8001 TIP7851 42913 RESIDUE 1 C TIP
8002 TIP7852 42916 RESIDUE 1 C TIP
8003 TIP7853 42919 RESIDUE 1 C TIP
8004 TIP7854 42922 RESIDUE 1 C TIP
8005 TIP7855 42925 RESIDUE 1 C TIP
8006 TIP7856 42928 RESIDUE 1 C TIP
8007 TIP7857 42931 RESIDUE 1 C TIP
8008 TIP7858 42934 RESIDUE 1 C TIP
8009 TIP7859 42937 RESIDUE 1 C TIP
8010 TIP7860 42940 RESIDUE 1 C TIP
8011 TIP7861 42943 RESIDUE 1 C TIP
8012 TIP7862 42946 RESIDUE 1 C TIP
8013 TIP7863 42949 RESIDUE 1 C TIP
8014 TIP7864 42952 RESIDUE 1 C TIP
8015 TIP7865 42955 RESIDUE 1 C TIP
8016 TIP7866 42958 RESIDUE 1 C TIP
8017 TIP7867 42961 RESIDUE 1 C TIP
8018 TIP7868 42964 RESIDUE 1 C TIP
8019 TIP7869 42967 RESIDUE 1 C TIP
8020 TIP7870 42970 RESIDUE 1 C TIP
8021 TIP7871 42973 RESIDUE 1 C TIP
8022 TIP7872 42976 RESIDUE 1 C TIP
8023 TIP7873 42979 RESIDUE 1 C TIP
8024 TIP7874 42982 RESIDUE 1 C TIP
8025 TIP7875 42985 RESIDUE 1 C TIP
8026 TIP7876 42988 RESIDUE 1 C TIP
8027 TIP7877 42991 RESIDUE 1 C TIP
8028 TIP7878 42994 RESIDUE 1 C TIP
8029 TIP7879 42997 RESIDUE 1 C TIP
8030 TIP7880 43000 RESIDUE 1 C TIP
8031 TIP7881 43003 RESIDUE 1 C TIP
8032 TIP7882 43006 RESIDUE 1 C TIP
8033 TIP7883 43009 RESIDUE 1 C TIP
8034 TIP7884 43012 RESIDUE 1 C TIP
8035 TIP7885 43015 RESIDUE 1 C TIP
8036 TIP7886 43018 RESIDUE 1 C TIP
8037 TIP7887 43021 RESIDUE 1 C TIP
8038 TIP7888 43024 RESIDUE 1 C TIP
8039 TIP7889 43027 RESIDUE 1 C TIP
8040 TIP7890 43030 RESIDUE 1 C TIP
8041 TIP7891 43033 RESIDUE 1 C TIP
8042 TIP7892 43036 RESIDUE 1 C TIP
8043 TIP7893 43039 RESIDUE 1 C TIP
8044 TIP7894 43042 RESIDUE 1 C TIP
8045 TIP7895 43045 RESIDUE 1 C TIP
8046 TIP7896 43048 RESIDUE 1 C TIP
8047 TIP7897 43051 RESIDUE 1 C TIP
8048 TIP7898 43054 RESIDUE 1 C TIP
8049 TIP7899 43057 RESIDUE 1 C TIP
8050 TIP7900 43060 RESIDUE 1 C TIP
8051 TIP7901 43063 RESIDUE 1 C TIP
8052 TIP7902 43066 RESIDUE 1 C TIP
8053 TIP7903 43069 RESIDUE 1 C TIP
8054 TIP7904 43072 RESIDUE 1 C TIP
8055 TIP7905 43075 RESIDUE 1 C TIP
8056 TIP7906 43078 RESIDUE 1 C TIP
8057 TIP7907 43081 RESIDUE 1 C TIP
8058 TIP7908 43084 RESIDUE 1 C TIP
8059 TIP7909 43087 RESIDUE 1 C TIP
8060 TIP7910 43090 RESIDUE 1 C TIP
8061 TIP7911 43093 RESIDUE 1 C TIP
8062 TIP7912 43096 RESIDUE 1 C TIP
8063 TIP7913 43099 RESIDUE 1 C TIP
8064 TIP7914 43102 RESIDUE 1 C TIP
8065 TIP7915 43105 RESIDUE 1 C TIP
8066 TIP7916 43108 RESIDUE 1 C TIP
8067 TIP7917 43111 RESIDUE 1 C TIP
8068 TIP7918 43114 RESIDUE 1 C TIP
8069 TIP7919 43117 RESIDUE 1 C TIP
8070 TIP7920 43120 RESIDUE 1 C TIP
8071 TIP7921 43123 RESIDUE 1 C TIP
8072 TIP7922 43126 RESIDUE 1 C TIP
8073 TIP7923 43129 RESIDUE 1 C TIP
8074 TIP7924 43132 RESIDUE 1 C TIP
8075 TIP7925 43135 RESIDUE 1 C TIP
8076 TIP7926 43138 RESIDUE 1 C TIP
8077 TIP7927 43141 RESIDUE 1 C TIP
8078 TIP7928 43144 RESIDUE 1 C TIP
8079 TIP7929 43147 RESIDUE 1 C TIP
8080 TIP7930 43150 RESIDUE 1 C TIP
8081 TIP7931 43153 RESIDUE 1 C TIP
8082 TIP7932 43156 RESIDUE 1 C TIP
8083 TIP7933 43159 RESIDUE 1 C TIP
8084 TIP7934 43162 RESIDUE 1 C TIP
8085 TIP7935 43165 RESIDUE 1 C TIP
8086 TIP7936 43168 RESIDUE 1 C TIP
8087 TIP7937 43171 RESIDUE 1 C TIP
8088 TIP7938 43174 RESIDUE 1 C TIP
8089 TIP7939 43177 RESIDUE 1 C TIP
8090 TIP7940 43180 RESIDUE 1 C TIP
8091 TIP7941 43183 RESIDUE 1 C TIP
8092 TIP7942 43186 RESIDUE 1 C TIP
8093 TIP7943 43189 RESIDUE 1 C TIP
8094 TIP7944 43192 RESIDUE 1 C TIP
8095 TIP7945 43195 RESIDUE 1 C TIP
8096 TIP7946 43198 RESIDUE 1 C TIP
8097 TIP7947 43201 RESIDUE 1 C TIP
8098 TIP7948 43204 RESIDUE 1 C TIP
8099 TIP7949 43207 RESIDUE 1 C TIP
8100 TIP7950 43210 RESIDUE 1 C TIP
8101 TIP7951 43213 RESIDUE 1 C TIP
8102 TIP7952 43216 RESIDUE 1 C TIP
8103 TIP7953 43219 RESIDUE 1 C TIP
8104 TIP7954 43222 RESIDUE 1 C TIP
8105 TIP7955 43225 RESIDUE 1 C TIP
8106 TIP7956 43228 RESIDUE 1 C TIP
8107 TIP7957 43231 RESIDUE 1 C TIP
8108 TIP7958 43234 RESIDUE 1 C TIP
8109 TIP7959 43237 RESIDUE 1 C TIP
8110 TIP7960 43240 RESIDUE 1 C TIP
8111 TIP7961 43243 RESIDUE 1 C TIP
8112 TIP7962 43246 RESIDUE 1 C TIP
8113 TIP7963 43249 RESIDUE 1 C TIP
8114 TIP7964 43252 RESIDUE 1 C TIP
8115 TIP7965 43255 RESIDUE 1 C TIP
8116 TIP7966 43258 RESIDUE 1 C TIP
8117 TIP7967 43261 RESIDUE 1 C TIP
8118 TIP7968 43264 RESIDUE 1 C TIP
8119 TIP7969 43267 RESIDUE 1 C TIP
8120 TIP7970 43270 RESIDUE 1 C TIP
8121 TIP7971 43273 RESIDUE 1 C TIP
8122 TIP7972 43276 RESIDUE 1 C TIP
8123 TIP7973 43279 RESIDUE 1 C TIP
8124 TIP7974 43282 RESIDUE 1 C TIP
8125 TIP7975 43285 RESIDUE 1 C TIP
8126 TIP7976 43288 RESIDUE 1 C TIP
8127 TIP7977 43291 RESIDUE 1 C TIP
8128 TIP7978 43294 RESIDUE 1 C TIP
8129 TIP7979 43297 RESIDUE 1 C TIP
8130 TIP7980 43300 RESIDUE 1 C TIP
8131 TIP7981 43303 RESIDUE 1 C TIP
8132 TIP7982 43306 RESIDUE 1 C TIP
8133 TIP7983 43309 RESIDUE 1 C TIP
8134 TIP7984 43312 RESIDUE 1 C TIP
8135 TIP7985 43315 RESIDUE 1 C TIP
8136 TIP7986 43318 RESIDUE 1 C TIP
8137 TIP7987 43321 RESIDUE 1 C TIP
8138 TIP7988 43324 RESIDUE 1 C TIP
8139 TIP7989 43327 RESIDUE 1 C TIP
8140 TIP7990 43330 RESIDUE 1 C TIP
8141 TIP7991 43333 RESIDUE 1 C TIP
8142 TIP7992 43336 RESIDUE 1 C TIP
8143 TIP7993 43339 RESIDUE 1 C TIP
8144 TIP7994 43342 RESIDUE 1 C TIP
8145 TIP7995 43345 RESIDUE 1 C TIP
8146 TIP7996 43348 RESIDUE 1 C TIP
8147 TIP7997 43351 RESIDUE 1 C TIP
8148 TIP7998 43354 RESIDUE 1 C TIP
8149 TIP7999 43357 RESIDUE 1 C TIP
8150 TIP8000 43360 RESIDUE 1 C TIP
8151 TIP8001 43363 RESIDUE 1 C TIP
8152 TIP8002 43366 RESIDUE 1 C TIP
8153 TIP8003 43369 RESIDUE 1 C TIP
8154 TIP8004 43372 RESIDUE 1 C TIP
8155 TIP8005 43375 RESIDUE 1 C TIP
8156 TIP8006 43378 RESIDUE 1 C TIP
8157 TIP8007 43381 RESIDUE 1 C TIP
8158 TIP8008 43384 RESIDUE 1 C TIP
8159 TIP8009 43387 RESIDUE 1 C TIP
8160 TIP8010 43390 RESIDUE 1 C TIP
8161 TIP8011 43393 RESIDUE 1 C TIP
8162 TIP8012 43396 RESIDUE 1 C TIP
8163 TIP8013 43399 RESIDUE 1 C TIP
8164 TIP8014 43402 RESIDUE 1 C TIP
8165 TIP8015 43405 RESIDUE 1 C TIP
8166 TIP8016 43408 RESIDUE 1 C TIP
8167 TIP8017 43411 RESIDUE 1 C TIP
8168 TIP8018 43414 RESIDUE 1 C TIP
8169 TIP8019 43417 RESIDUE 1 C TIP
8170 TIP8020 43420 RESIDUE 1 C TIP
8171 TIP8021 43423 RESIDUE 1 C TIP
8172 TIP8022 43426 RESIDUE 1 C TIP
8173 TIP8023 43429 RESIDUE 1 C TIP
8174 TIP8024 43432 RESIDUE 1 C TIP
8175 TIP8025 43435 RESIDUE 1 C TIP
8176 TIP8026 43438 RESIDUE 1 C TIP
8177 TIP8027 43441 RESIDUE 1 C TIP
8178 TIP8028 43444 RESIDUE 1 C TIP
8179 TIP8029 43447 RESIDUE 1 C TIP
8180 TIP8030 43450 RESIDUE 1 C TIP
8181 TIP8031 43453 RESIDUE 1 C TIP
8182 TIP8032 43456 RESIDUE 1 C TIP
8183 TIP8033 43459 RESIDUE 1 C TIP
8184 TIP8034 43462 RESIDUE 1 C TIP
8185 TIP8035 43465 RESIDUE 1 C TIP
8186 TIP8036 43468 RESIDUE 1 C TIP
8187 TIP8037 43471 RESIDUE 1 C TIP
8188 TIP8038 43474 RESIDUE 1 C TIP
8189 TIP8039 43477 RESIDUE 1 C TIP
8190 TIP8040 43480 RESIDUE 1 C TIP
8191 TIP8041 43483 RESIDUE 1 C TIP
8192 TIP8042 43486 RESIDUE 1 C TIP
8193 TIP8043 43489 RESIDUE 1 C TIP
8194 TIP8044 43492 RESIDUE 1 C TIP
8195 TIP8045 43495 RESIDUE 1 C TIP
8196 TIP8046 43498 RESIDUE 1 C TIP
8197 TIP8047 43501 RESIDUE 1 C TIP
8198 TIP8048 43504 RESIDUE 1 C TIP
8199 TIP8049 43507 RESIDUE 1 C TIP
8200 TIP8050 43510 RESIDUE 1 C TIP
8201 TIP8051 43513 RESIDUE 1 C TIP
8202 TIP8052 43516 RESIDUE 1 C TIP
8203 TIP8053 43519 RESIDUE 1 C TIP
8204 TIP8054 43522 RESIDUE 1 C TIP
8205 TIP8055 43525 RESIDUE 1 C TIP
8206 TIP8056 43528 RESIDUE 1 C TIP
8207 TIP8057 43531 RESIDUE 1 C TIP
8208 TIP8058 43534 RESIDUE 1 C TIP
8209 TIP8059 43537 RESIDUE 1 C TIP
8210 TIP8060 43540 RESIDUE 1 C TIP
8211 TIP8061 43543 RESIDUE 1 C TIP
8212 TIP8062 43546 RESIDUE 1 C TIP
8213 TIP8063 43549 RESIDUE 1 C TIP
8214 TIP8064 43552 RESIDUE 1 C TIP
8215 TIP8065 43555 RESIDUE 1 C TIP
8216 TIP8066 43558 RESIDUE 1 C TIP
8217 TIP8067 43561 RESIDUE 1 C TIP
8218 TIP8068 43564 RESIDUE 1 C TIP
8219 TIP8069 43567 RESIDUE 1 C TIP
8220 TIP8070 43570 RESIDUE 1 C TIP
8221 TIP8071 43573 RESIDUE 1 C TIP
8222 TIP8072 43576 RESIDUE 1 C TIP
8223 TIP8073 43579 RESIDUE 1 C TIP
8224 TIP8074 43582 RESIDUE 1 C TIP
8225 TIP8075 43585 RESIDUE 1 C TIP
8226 TIP8076 43588 RESIDUE 1 C TIP
8227 TIP8077 43591 RESIDUE 1 C TIP
8228 TIP8078 43594 RESIDUE 1 C TIP
8229 TIP8079 43597 RESIDUE 1 C TIP
8230 TIP8080 43600 RESIDUE 1 C TIP
8231 TIP8081 43603 RESIDUE 1 C TIP
8232 TIP8082 43606 RESIDUE 1 C TIP
8233 TIP8083 43609 RESIDUE 1 C TIP
8234 TIP8084 43612 RESIDUE 1 C TIP
8235 TIP8085 43615 RESIDUE 1 C TIP
8236 TIP8086 43618 RESIDUE 1 C TIP
8237 TIP8087 43621 RESIDUE 1 C TIP
8238 TIP8088 43624 RESIDUE 1 C TIP
8239 TIP8089 43627 RESIDUE 1 C TIP
8240 TIP8090 43630 RESIDUE 1 C TIP
8241 TIP8091 43633 RESIDUE 1 C TIP
8242 TIP8092 43636 RESIDUE 1 C TIP
8243 TIP8093 43639 RESIDUE 1 C TIP
8244 TIP8094 43642 RESIDUE 1 C TIP
8245 TIP8095 43645 RESIDUE 1 C TIP
8246 TIP8096 43648 RESIDUE 1 C TIP
8247 TIP8097 43651 RESIDUE 1 C TIP
8248 TIP8098 43654 RESIDUE 1 C TIP
8249 TIP8099 43657 RESIDUE 1 C TIP
8250 TIP8100 43660 RESIDUE 1 C TIP
8251 TIP8101 43663 RESIDUE 1 C TIP
8252 TIP8102 43666 RESIDUE 1 C TIP
8253 TIP8103 43669 RESIDUE 1 C TIP
8254 TIP8104 43672 RESIDUE 1 C TIP
8255 TIP8105 43675 RESIDUE 1 C TIP
8256 TIP8106 43678 RESIDUE 1 C TIP
8257 TIP8107 43681 RESIDUE 1 C TIP
8258 TIP8108 43684 RESIDUE 1 C TIP
8259 TIP8109 43687 RESIDUE 1 C TIP
8260 TIP8110 43690 RESIDUE 1 C TIP
8261 TIP8111 43693 RESIDUE 1 C TIP
8262 TIP8112 43696 RESIDUE 1 C TIP
8263 TIP8113 43699 RESIDUE 1 C TIP
8264 TIP8114 43702 RESIDUE 1 C TIP
8265 TIP8115 43705 RESIDUE 1 C TIP
8266 TIP8116 43708 RESIDUE 1 C TIP
8267 TIP8117 43711 RESIDUE 1 C TIP
8268 TIP8118 43714 RESIDUE 1 C TIP
8269 TIP8119 43717 RESIDUE 1 C TIP
8270 TIP8120 43720 RESIDUE 1 C TIP
8271 TIP8121 43723 RESIDUE 1 C TIP
8272 TIP8122 43726 RESIDUE 1 C TIP
8273 TIP8123 43729 RESIDUE 1 C TIP
8274 TIP8124 43732 RESIDUE 1 C TIP
8275 TIP8125 43735 RESIDUE 1 C TIP
8276 TIP8126 43738 RESIDUE 1 C TIP
8277 TIP8127 43741 RESIDUE 1 C TIP
8278 TIP8128 43744 RESIDUE 1 C TIP
8279 TIP8129 43747 RESIDUE 1 C TIP
8280 TIP8130 43750 RESIDUE 1 C TIP
8281 TIP8131 43753 RESIDUE 1 C TIP
8282 TIP8132 43756 RESIDUE 1 C TIP
8283 TIP8133 43759 RESIDUE 1 C TIP
8284 TIP8134 43762 RESIDUE 1 C TIP
8285 TIP8135 43765 RESIDUE 1 C TIP
8286 TIP8136 43768 RESIDUE 1 C TIP
8287 TIP8137 43771 RESIDUE 1 C TIP
8288 TIP8138 43774 RESIDUE 1 C TIP
8289 TIP8139 43777 RESIDUE 1 C TIP
8290 TIP8140 43780 RESIDUE 1 C TIP
8291 TIP8141 43783 RESIDUE 1 C TIP
8292 TIP8142 43786 RESIDUE 1 C TIP
8293 TIP8143 43789 RESIDUE 1 C TIP
8294 TIP8144 43792 RESIDUE 1 C TIP
8295 TIP8145 43795 RESIDUE 1 C TIP
8296 TIP8146 43798 RESIDUE 1 C TIP
8297 TIP8147 43801 RESIDUE 1 C TIP
8298 TIP8148 43804 RESIDUE 1 C TIP
8299 TIP8149 43807 RESIDUE 1 C TIP
8300 TIP8150 43810 RESIDUE 1 C TIP
8301 TIP8151 43813 RESIDUE 1 C TIP
8302 TIP8152 43816 RESIDUE 1 C TIP
8303 TIP8153 43819 RESIDUE 1 C TIP
8304 TIP8154 43822 RESIDUE 1 C TIP
8305 TIP8155 43825 RESIDUE 1 C TIP
8306 TIP8156 43828 RESIDUE 1 C TIP
8307 TIP8157 43831 RESIDUE 1 C TIP
8308 TIP8158 43834 RESIDUE 1 C TIP
8309 TIP8159 43837 RESIDUE 1 C TIP
8310 TIP8160 43840 RESIDUE 1 C TIP
8311 TIP8161 43843 RESIDUE 1 C TIP
8312 TIP8162 43846 RESIDUE 1 C TIP
8313 TIP8163 43849 RESIDUE 1 C TIP
8314 TIP8164 43852 RESIDUE 1 C TIP
8315 TIP8165 43855 RESIDUE 1 C TIP
8316 TIP8166 43858 RESIDUE 1 C TIP
8317 TIP8167 43861 RESIDUE 1 C TIP
8318 TIP8168 43864 RESIDUE 1 C TIP
8319 TIP8169 43867 RESIDUE 1 C TIP
8320 TIP8170 43870 RESIDUE 1 C TIP
8321 TIP8171 43873 RESIDUE 1 C TIP
8322 TIP8172 43876 RESIDUE 1 C TIP
8323 TIP8173 43879 RESIDUE 1 C TIP
8324 TIP8174 43882 RESIDUE 1 C TIP
8325 TIP8175 43885 RESIDUE 1 C TIP
8326 TIP8176 43888 RESIDUE 1 C TIP
8327 TIP8177 43891 RESIDUE 1 C TIP
8328 TIP8178 43894 RESIDUE 1 C TIP
8329 TIP8179 43897 RESIDUE 1 C TIP
8330 TIP8180 43900 RESIDUE 1 C TIP
8331 TIP8181 43903 RESIDUE 1 C TIP
8332 TIP8182 43906 RESIDUE 1 C TIP
8333 TIP8183 43909 RESIDUE 1 C TIP
8334 TIP8184 43912 RESIDUE 1 C TIP
8335 TIP8185 43915 RESIDUE 1 C TIP
8336 TIP8186 43918 RESIDUE 1 C TIP
8337 TIP8187 43921 RESIDUE 1 C TIP
8338 TIP8188 43924 RESIDUE 1 C TIP
8339 TIP8189 43927 RESIDUE 1 C TIP
8340 TIP8190 43930 RESIDUE 1 C TIP
8341 TIP8191 43933 RESIDUE 1 C TIP
8342 TIP8192 43936 RESIDUE 1 C TIP
8343 TIP8193 43939 RESIDUE 1 C TIP
8344 TIP8194 43942 RESIDUE 1 C TIP
8345 TIP8195 43945 RESIDUE 1 C TIP
8346 TIP8196 43948 RESIDUE 1 C TIP
8347 TIP8197 43951 RESIDUE 1 C TIP
8348 TIP8198 43954 RESIDUE 1 C TIP
8349 TIP8199 43957 RESIDUE 1 C TIP
8350 TIP8200 43960 RESIDUE 1 C TIP
8351 TIP8201 43963 RESIDUE 1 C TIP
8352 TIP8202 43966 RESIDUE 1 C TIP
8353 TIP8203 43969 RESIDUE 1 C TIP
8354 TIP8204 43972 RESIDUE 1 C TIP
8355 TIP8205 43975 RESIDUE 1 C TIP
8356 TIP8206 43978 RESIDUE 1 C TIP
8357 TIP8207 43981 RESIDUE 1 C TIP
8358 TIP8208 43984 RESIDUE 1 C TIP
8359 TIP8209 43987 RESIDUE 1 C TIP
8360 TIP8210 43990 RESIDUE 1 C TIP
8361 TIP8211 43993 RESIDUE 1 C TIP
8362 TIP8212 43996 RESIDUE 1 C TIP
8363 TIP8213 43999 RESIDUE 1 C TIP
8364 TIP8214 44002 RESIDUE 1 C TIP
8365 TIP8215 44005 RESIDUE 1 C TIP
8366 TIP8216 44008 RESIDUE 1 C TIP
8367 TIP8217 44011 RESIDUE 1 C TIP
8368 TIP8218 44014 RESIDUE 1 C TIP
8369 TIP8219 44017 RESIDUE 1 C TIP
8370 TIP8220 44020 RESIDUE 1 C TIP
8371 TIP8221 44023 RESIDUE 1 C TIP
8372 TIP8222 44026 RESIDUE 1 C TIP
8373 TIP8223 44029 RESIDUE 1 C TIP
8374 TIP8224 44032 RESIDUE 1 C TIP
8375 TIP8225 44035 RESIDUE 1 C TIP
8376 TIP8226 44038 RESIDUE 1 C TIP
8377 TIP8227 44041 RESIDUE 1 C TIP
8378 TIP8228 44044 RESIDUE 1 C TIP
8379 TIP8229 44047 RESIDUE 1 C TIP
8380 TIP8230 44050 RESIDUE 1 C TIP
8381 TIP8231 44053 RESIDUE 1 C TIP
8382 TIP8232 44056 RESIDUE 1 C TIP
8383 TIP8233 44059 RESIDUE 1 C TIP
8384 TIP8234 44062 RESIDUE 1 C TIP
8385 TIP8235 44065 RESIDUE 1 C TIP
8386 TIP8236 44068 RESIDUE 1 C TIP
8387 TIP8237 44071 RESIDUE 1 C TIP
8388 TIP8238 44074 RESIDUE 1 C TIP
8389 TIP8239 44077 RESIDUE 1 C TIP
8390 TIP8240 44080 RESIDUE 1 C TIP
8391 TIP8241 44083 RESIDUE 1 C TIP
8392 TIP8242 44086 RESIDUE 1 C TIP
8393 TIP8243 44089 RESIDUE 1 C TIP
8394 TIP8244 44092 RESIDUE 1 C TIP
8395 TIP8245 44095 RESIDUE 1 C TIP
8396 TIP8246 44098 RESIDUE 1 C TIP
8397 TIP8247 44101 RESIDUE 1 C TIP
8398 TIP8248 44104 RESIDUE 1 C TIP
8399 TIP8249 44107 RESIDUE 1 C TIP
8400 TIP8250 44110 RESIDUE 1 C TIP
8401 TIP8251 44113 RESIDUE 1 C TIP
8402 TIP8252 44116 RESIDUE 1 C TIP
8403 TIP8253 44119 RESIDUE 1 C TIP
8404 TIP8254 44122 RESIDUE 1 C TIP
8405 TIP8255 44125 RESIDUE 1 C TIP
8406 TIP8256 44128 RESIDUE 1 C TIP
8407 TIP8257 44131 RESIDUE 1 C TIP
8408 TIP8258 44134 RESIDUE 1 C TIP
8409 TIP8259 44137 RESIDUE 1 C TIP
8410 TIP8260 44140 RESIDUE 1 C TIP
8411 TIP8261 44143 RESIDUE 1 C TIP
8412 TIP8262 44146 RESIDUE 1 C TIP
8413 TIP8263 44149 RESIDUE 1 C TIP
8414 TIP8264 44152 RESIDUE 1 C TIP
8415 TIP8265 44155 RESIDUE 1 C TIP
8416 TIP8266 44158 RESIDUE 1 C TIP
8417 TIP8267 44161 RESIDUE 1 C TIP
8418 TIP8268 44164 RESIDUE 1 C TIP
8419 TIP8269 44167 RESIDUE 1 C TIP
8420 TIP8270 44170 RESIDUE 1 C TIP
8421 TIP8271 44173 RESIDUE 1 C TIP
8422 TIP8272 44176 RESIDUE 1 C TIP
8423 TIP8273 44179 RESIDUE 1 C TIP
8424 TIP8274 44182 RESIDUE 1 C TIP
8425 TIP8275 44185 RESIDUE 1 C TIP
8426 TIP8276 44188 RESIDUE 1 C TIP
8427 TIP8277 44191 RESIDUE 1 C TIP
8428 TIP8278 44194 RESIDUE 1 C TIP
8429 TIP8279 44197 RESIDUE 1 C TIP
8430 TIP8280 44200 RESIDUE 1 C TIP
8431 TIP8281 44203 RESIDUE 1 C TIP
8432 TIP8282 44206 RESIDUE 1 C TIP
8433 TIP8283 44209 RESIDUE 1 C TIP
8434 TIP8284 44212 RESIDUE 1 C TIP
8435 TIP8285 44215 RESIDUE 1 C TIP
8436 TIP8286 44218 RESIDUE 1 C TIP
8437 TIP8287 44221 RESIDUE 1 C TIP
8438 TIP8288 44224 RESIDUE 1 C TIP
8439 TIP8289 44227 RESIDUE 1 C TIP
8440 TIP8290 44230 RESIDUE 1 C TIP
8441 TIP8291 44233 RESIDUE 1 C TIP
8442 TIP8292 44236 RESIDUE 1 C TIP
8443 TIP8293 44239 RESIDUE 1 C TIP
8444 TIP8294 44242 RESIDUE 1 C TIP
8445 TIP8295 44245 RESIDUE 1 C TIP
8446 TIP8296 44248 RESIDUE 1 C TIP
8447 TIP8297 44251 RESIDUE 1 C TIP
8448 TIP8298 44254 RESIDUE 1 C TIP
8449 TIP8299 44257 RESIDUE 1 C TIP
8450 TIP8300 44260 RESIDUE 1 C TIP
8451 TIP8301 44263 RESIDUE 1 C TIP
8452 TIP8302 44266 RESIDUE 1 C TIP
8453 TIP8303 44269 RESIDUE 1 C TIP
8454 TIP8304 44272 RESIDUE 1 C TIP
8455 TIP8305 44275 RESIDUE 1 C TIP
8456 TIP8306 44278 RESIDUE 1 C TIP
8457 TIP8307 44281 RESIDUE 1 C TIP
8458 TIP8308 44284 RESIDUE 1 C TIP
8459 TIP8309 44287 RESIDUE 1 C TIP
8460 TIP8310 44290 RESIDUE 1 C TIP
8461 TIP8311 44293 RESIDUE 1 C TIP
8462 TIP8312 44296 RESIDUE 1 C TIP
8463 TIP8313 44299 RESIDUE 1 C TIP
8464 TIP8314 44302 RESIDUE 1 C TIP
8465 TIP8315 44305 RESIDUE 1 C TIP
8466 TIP8316 44308 RESIDUE 1 C TIP
8467 TIP8317 44311 RESIDUE 1 C TIP
8468 TIP8318 44314 RESIDUE 1 C TIP
8469 TIP8319 44317 RESIDUE 1 C TIP
8470 TIP8320 44320 RESIDUE 1 C TIP
8471 TIP8321 44323 RESIDUE 1 C TIP
8472 TIP8322 44326 RESIDUE 1 C TIP
8473 TIP8323 44329 RESIDUE 1 C TIP
8474 TIP8324 44332 RESIDUE 1 C TIP
8475 TIP8325 44335 RESIDUE 1 C TIP
8476 TIP8326 44338 RESIDUE 1 C TIP
8477 TIP8327 44341 RESIDUE 1 C TIP
8478 TIP8328 44344 RESIDUE 1 C TIP
8479 TIP8329 44347 RESIDUE 1 C TIP
8480 TIP8330 44350 RESIDUE 1 C TIP
8481 TIP8331 44353 RESIDUE 1 C TIP
8482 TIP8332 44356 RESIDUE 1 C TIP
8483 TIP8333 44359 RESIDUE 1 C TIP
8484 TIP8334 44362 RESIDUE 1 C TIP
8485 TIP8335 44365 RESIDUE 1 C TIP
8486 TIP8336 44368 RESIDUE 1 C TIP
8487 TIP8337 44371 RESIDUE 1 C TIP
8488 TIP8338 44374 RESIDUE 1 C TIP
8489 TIP8339 44377 RESIDUE 1 C TIP
8490 TIP8340 44380 RESIDUE 1 C TIP
8491 TIP8341 44383 RESIDUE 1 C TIP
8492 TIP8342 44386 RESIDUE 1 C TIP
8493 TIP8343 44389 RESIDUE 1 C TIP
8494 TIP8344 44392 RESIDUE 1 C TIP
8495 TIP8345 44395 RESIDUE 1 C TIP
8496 TIP8346 44398 RESIDUE 1 C TIP
8497 TIP8347 44401 RESIDUE 1 C TIP
8498 TIP8348 44404 RESIDUE 1 C TIP
8499 TIP8349 44407 RESIDUE 1 C TIP
8500 TIP8350 44410 RESIDUE 1 C TIP
8501 TIP8351 44413 RESIDUE 1 C TIP
8502 TIP8352 44416 RESIDUE 1 C TIP
8503 TIP8353 44419 RESIDUE 1 C TIP
8504 TIP8354 44422 RESIDUE 1 C TIP
8505 TIP8355 44425 RESIDUE 1 C TIP
8506 TIP8356 44428 RESIDUE 1 C TIP
8507 TIP8357 44431 RESIDUE 1 C TIP
8508 TIP8358 44434 RESIDUE 1 C TIP
8509 TIP8359 44437 RESIDUE 1 C TIP
8510 TIP8360 44440 RESIDUE 1 C TIP
8511 TIP8361 44443 RESIDUE 1 C TIP
8512 TIP8362 44446 RESIDUE 1 C TIP
8513 TIP8363 44449 RESIDUE 1 C TIP
8514 TIP8364 44452 RESIDUE 1 C TIP
8515 TIP8365 44455 RESIDUE 1 C TIP
8516 TIP8366 44458 RESIDUE 1 C TIP
8517 TIP8367 44461 RESIDUE 1 C TIP
8518 TIP8368 44464 RESIDUE 1 C TIP
8519 TIP8369 44467 RESIDUE 1 C TIP
8520 TIP8370 44470 RESIDUE 1 C TIP
8521 TIP8371 44473 RESIDUE 1 C TIP
8522 TIP8372 44476 RESIDUE 1 C TIP
8523 TIP8373 44479 RESIDUE 1 C TIP
8524 TIP8374 44482 RESIDUE 1 C TIP
8525 TIP8375 44485 RESIDUE 1 C TIP
8526 TIP8376 44488 RESIDUE 1 C TIP
8527 TIP8377 44491 RESIDUE 1 C TIP
8528 TIP8378 44494 RESIDUE 1 C TIP
8529 TIP8379 44497 RESIDUE 1 C TIP
8530 TIP8380 44500 RESIDUE 1 C TIP
8531 TIP8381 44503 RESIDUE 1 C TIP
8532 TIP8382 44506 RESIDUE 1 C TIP
8533 TIP8383 44509 RESIDUE 1 C TIP
8534 TIP8384 44512 RESIDUE 1 C TIP
8535 TIP8385 44515 RESIDUE 1 C TIP
8536 TIP8386 44518 RESIDUE 1 C TIP
8537 TIP8387 44521 RESIDUE 1 C TIP
8538 TIP8388 44524 RESIDUE 1 C TIP
8539 TIP8389 44527 RESIDUE 1 C TIP
8540 TIP8390 44530 RESIDUE 1 C TIP
8541 TIP8391 44533 RESIDUE 1 C TIP
8542 TIP8392 44536 RESIDUE 1 C TIP
8543 TIP8393 44539 RESIDUE 1 C TIP
8544 TIP8394 44542 RESIDUE 1 C TIP
8545 TIP8395 44545 RESIDUE 1 C TIP
8546 TIP8396 44548 RESIDUE 1 C TIP
8547 TIP8397 44551 RESIDUE 1 C TIP
8548 TIP8398 44554 RESIDUE 1 C TIP
8549 TIP8399 44557 RESIDUE 1 C TIP
8550 TIP8400 44560 RESIDUE 1 C TIP
8551 TIP8401 44563 RESIDUE 1 C TIP
8552 TIP8402 44566 RESIDUE 1 C TIP
8553 TIP8403 44569 RESIDUE 1 C TIP
8554 TIP8404 44572 RESIDUE 1 C TIP
8555 TIP8405 44575 RESIDUE 1 C TIP
8556 TIP8406 44578 RESIDUE 1 C TIP
8557 TIP8407 44581 RESIDUE 1 C TIP
8558 TIP8408 44584 RESIDUE 1 C TIP
8559 TIP8409 44587 RESIDUE 1 C TIP
8560 TIP8410 44590 RESIDUE 1 C TIP
8561 TIP8411 44593 RESIDUE 1 C TIP
8562 TIP8412 44596 RESIDUE 1 C TIP
8563 TIP8413 44599 RESIDUE 1 C TIP
8564 TIP8414 44602 RESIDUE 1 C TIP
8565 TIP8415 44605 RESIDUE 1 C TIP
8566 TIP8416 44608 RESIDUE 1 C TIP
8567 TIP8417 44611 RESIDUE 1 C TIP
8568 TIP8418 44614 RESIDUE 1 C TIP
8569 TIP8419 44617 RESIDUE 1 C TIP
8570 TIP8420 44620 RESIDUE 1 C TIP
8571 TIP8421 44623 RESIDUE 1 C TIP
8572 TIP8422 44626 RESIDUE 1 C TIP
8573 TIP8423 44629 RESIDUE 1 C TIP
8574 TIP8424 44632 RESIDUE 1 C TIP
8575 TIP8425 44635 RESIDUE 1 C TIP
8576 TIP8426 44638 RESIDUE 1 C TIP
8577 TIP8427 44641 RESIDUE 1 C TIP
8578 TIP8428 44644 RESIDUE 1 C TIP
8579 TIP8429 44647 RESIDUE 1 C TIP
8580 TIP8430 44650 RESIDUE 1 C TIP
8581 TIP8431 44653 RESIDUE 1 C TIP
8582 TIP8432 44656 RESIDUE 1 C TIP
8583 TIP8433 44659 RESIDUE 1 C TIP
8584 TIP8434 44662 RESIDUE 1 C TIP
8585 TIP8435 44665 RESIDUE 1 C TIP
8586 TIP8436 44668 RESIDUE 1 C TIP
8587 TIP8437 44671 RESIDUE 1 C TIP
8588 TIP8438 44674 RESIDUE 1 C TIP
8589 TIP8439 44677 RESIDUE 1 C TIP
8590 TIP8440 44680 RESIDUE 1 C TIP
8591 TIP8441 44683 RESIDUE 1 C TIP
8592 TIP8442 44686 RESIDUE 1 C TIP
8593 TIP8443 44689 RESIDUE 1 C TIP
8594 TIP8444 44692 RESIDUE 1 C TIP
8595 TIP8445 44695 RESIDUE 1 C TIP
8596 TIP8446 44698 RESIDUE 1 C TIP
8597 TIP8447 44701 RESIDUE 1 C TIP
8598 TIP8448 44704 RESIDUE 1 C TIP
8599 TIP8449 44707 RESIDUE 1 C TIP
8600 TIP8450 44710 RESIDUE 1 C TIP
8601 TIP8451 44713 RESIDUE 1 C TIP
8602 TIP8452 44716 RESIDUE 1 C TIP
8603 TIP8453 44719 RESIDUE 1 C TIP
8604 TIP8454 44722 RESIDUE 1 C TIP
8605 TIP8455 44725 RESIDUE 1 C TIP
8606 TIP8456 44728 RESIDUE 1 C TIP
8607 TIP8457 44731 RESIDUE 1 C TIP
8608 TIP8458 44734 RESIDUE 1 C TIP
8609 TIP8459 44737 RESIDUE 1 C TIP
8610 TIP8460 44740 RESIDUE 1 C TIP
8611 TIP8461 44743 RESIDUE 1 C TIP
8612 TIP8462 44746 RESIDUE 1 C TIP
8613 TIP8463 44749 RESIDUE 1 C TIP
8614 TIP8464 44752 RESIDUE 1 C TIP
8615 TIP8465 44755 RESIDUE 1 C TIP
8616 TIP8466 44758 RESIDUE 1 C TIP
8617 TIP8467 44761 RESIDUE 1 C TIP
8618 TIP8468 44764 RESIDUE 1 C TIP
8619 TIP8469 44767 RESIDUE 1 C TIP
8620 TIP8470 44770 RESIDUE 1 C TIP
8621 TIP8471 44773 RESIDUE 1 C TIP
8622 TIP8472 44776 RESIDUE 1 C TIP
8623 TIP8473 44779 RESIDUE 1 C TIP
8624 TIP8474 44782 RESIDUE 1 C TIP
8625 TIP8475 44785 RESIDUE 1 C TIP
8626 TIP8476 44788 RESIDUE 1 C TIP
8627 TIP8477 44791 RESIDUE 1 C TIP
8628 TIP8478 44794 RESIDUE 1 C TIP
8629 TIP8479 44797 RESIDUE 1 C TIP
8630 TIP8480 44800 RESIDUE 1 C TIP
8631 TIP8481 44803 RESIDUE 1 C TIP
8632 TIP8482 44806 RESIDUE 1 C TIP
8633 TIP8483 44809 RESIDUE 1 C TIP
8634 TIP8484 44812 RESIDUE 1 C TIP
8635 TIP8485 44815 RESIDUE 1 C TIP
8636 TIP8486 44818 RESIDUE 1 C TIP
8637 TIP8487 44821 RESIDUE 1 C TIP
8638 TIP8488 44824 RESIDUE 1 C TIP
8639 TIP8489 44827 RESIDUE 1 C TIP
8640 TIP8490 44830 RESIDUE 1 C TIP
8641 TIP8491 44833 RESIDUE 1 C TIP
8642 TIP8492 44836 RESIDUE 1 C TIP
8643 TIP8493 44839 RESIDUE 1 C TIP
8644 TIP8494 44842 RESIDUE 1 C TIP
8645 TIP8495 44845 RESIDUE 1 C TIP
8646 TIP8496 44848 RESIDUE 1 C TIP
8647 TIP8497 44851 RESIDUE 1 C TIP
8648 TIP8498 44854 RESIDUE 1 C TIP
8649 TIP8499 44857 RESIDUE 1 C TIP
8650 TIP8500 44860 RESIDUE 1 C TIP
8651 TIP8501 44863 RESIDUE 1 C TIP
8652 TIP8502 44866 RESIDUE 1 C TIP
8653 TIP8503 44869 RESIDUE 1 C TIP
8654 TIP8504 44872 RESIDUE 1 C TIP
8655 TIP8505 44875 RESIDUE 1 C TIP
8656 TIP8506 44878 RESIDUE 1 C TIP
8657 TIP8507 44881 RESIDUE 1 C TIP
8658 TIP8508 44884 RESIDUE 1 C TIP
8659 TIP8509 44887 RESIDUE 1 C TIP
8660 TIP8510 44890 RESIDUE 1 C TIP
8661 TIP8511 44893 RESIDUE 1 C TIP
8662 TIP8512 44896 RESIDUE 1 C TIP
8663 TIP8513 44899 RESIDUE 1 C TIP
8664 TIP8514 44902 RESIDUE 1 C TIP
8665 TIP8515 44905 RESIDUE 1 C TIP
8666 TIP8516 44908 RESIDUE 1 C TIP
8667 TIP8517 44911 RESIDUE 1 C TIP
8668 TIP8518 44914 RESIDUE 1 C TIP
8669 TIP8519 44917 RESIDUE 1 C TIP
8670 TIP8520 44920 RESIDUE 1 C TIP
8671 TIP8521 44923 RESIDUE 1 C TIP
8672 TIP8522 44926 RESIDUE 1 C TIP
8673 TIP8523 44929 RESIDUE 1 C TIP
8674 TIP8524 44932 RESIDUE 1 C TIP
8675 TIP8525 44935 RESIDUE 1 C TIP
8676 TIP8526 44938 RESIDUE 1 C TIP
8677 TIP8527 44941 RESIDUE 1 C TIP
8678 TIP8528 44944 RESIDUE 1 C TIP
8679 TIP8529 44947 RESIDUE 1 C TIP
8680 TIP8530 44950 RESIDUE 1 C TIP
8681 TIP8531 44953 RESIDUE 1 C TIP
8682 TIP8532 44956 RESIDUE 1 C TIP
8683 TIP8533 44959 RESIDUE 1 C TIP
8684 TIP8534 44962 RESIDUE 1 C TIP
8685 TIP8535 44965 RESIDUE 1 C TIP
8686 TIP8536 44968 RESIDUE 1 C TIP
8687 TIP8537 44971 RESIDUE 1 C TIP
8688 TIP8538 44974 RESIDUE 1 C TIP
8689 TIP8539 44977 RESIDUE 1 C TIP
8690 TIP8540 44980 RESIDUE 1 C TIP
8691 TIP8541 44983 RESIDUE 1 C TIP
8692 TIP8542 44986 RESIDUE 1 C TIP
8693 TIP8543 44989 RESIDUE 1 C TIP
8694 TIP8544 44992 RESIDUE 1 C TIP
8695 TIP8545 44995 RESIDUE 1 C TIP
8696 TIP8546 44998 RESIDUE 1 C TIP
8697 TIP8547 45001 RESIDUE 1 C TIP
8698 TIP8548 45004 RESIDUE 1 C TIP
8699 TIP8549 45007 RESIDUE 1 C TIP
8700 TIP8550 45010 RESIDUE 1 C TIP
8701 TIP8551 45013 RESIDUE 1 C TIP
8702 TIP8552 45016 RESIDUE 1 C TIP
8703 TIP8553 45019 RESIDUE 1 C TIP
8704 TIP8554 45022 RESIDUE 1 C TIP
8705 TIP8555 45025 RESIDUE 1 C TIP
8706 TIP8556 45028 RESIDUE 1 C TIP
8707 TIP8557 45031 RESIDUE 1 C TIP
8708 TIP8558 45034 RESIDUE 1 C TIP
8709 TIP8559 45037 RESIDUE 1 C TIP
8710 TIP8560 45040 RESIDUE 1 C TIP
8711 TIP8561 45043 RESIDUE 1 C TIP
8712 TIP8562 45046 RESIDUE 1 C TIP
8713 TIP8563 45049 RESIDUE 1 C TIP
8714 TIP8564 45052 RESIDUE 1 C TIP
8715 TIP8565 45055 RESIDUE 1 C TIP
8716 TIP8566 45058 RESIDUE 1 C TIP
8717 TIP8567 45061 RESIDUE 1 C TIP
8718 TIP8568 45064 RESIDUE 1 C TIP
8719 TIP8569 45067 RESIDUE 1 C TIP
8720 TIP8570 45070 RESIDUE 1 C TIP
8721 TIP8571 45073 RESIDUE 1 C TIP
8722 TIP8572 45076 RESIDUE 1 C TIP
8723 TIP8573 45079 RESIDUE 1 C TIP
8724 TIP8574 45082 RESIDUE 1 C TIP
8725 TIP8575 45085 RESIDUE 1 C TIP
8726 TIP8576 45088 RESIDUE 1 C TIP
8727 TIP8577 45091 RESIDUE 1 C TIP
8728 TIP8578 45094 RESIDUE 1 C TIP
8729 TIP8579 45097 RESIDUE 1 C TIP
8730 TIP8580 45100 RESIDUE 1 C TIP
8731 TIP8581 45103 RESIDUE 1 C TIP
8732 TIP8582 45106 RESIDUE 1 C TIP
8733 TIP8583 45109 RESIDUE 1 C TIP
8734 TIP8584 45112 RESIDUE 1 C TIP
8735 TIP8585 45115 RESIDUE 1 C TIP
8736 TIP8586 45118 RESIDUE 1 C TIP
8737 TIP8587 45121 RESIDUE 1 C TIP
8738 TIP8588 45124 RESIDUE 1 C TIP
8739 TIP8589 45127 RESIDUE 1 C TIP
8740 TIP8590 45130 RESIDUE 1 C TIP
8741 TIP8591 45133 RESIDUE 1 C TIP
8742 TIP8592 45136 RESIDUE 1 C TIP
8743 TIP8593 45139 RESIDUE 1 C TIP
8744 TIP8594 45142 RESIDUE 1 C TIP
8745 TIP8595 45145 RESIDUE 1 C TIP
8746 TIP8596 45148 RESIDUE 1 C TIP
8747 TIP8597 45151 RESIDUE 1 C TIP
8748 TIP8598 45154 RESIDUE 1 C TIP
8749 TIP8599 45157 RESIDUE 1 C TIP
8750 TIP8600 45160 RESIDUE 1 C TIP
8751 TIP8601 45163 RESIDUE 1 C TIP
8752 TIP8602 45166 RESIDUE 1 C TIP
8753 TIP8603 45169 RESIDUE 1 C TIP
8754 TIP8604 45172 RESIDUE 1 C TIP
8755 TIP8605 45175 RESIDUE 1 C TIP
8756 TIP8606 45178 RESIDUE 1 C TIP
8757 TIP8607 45181 RESIDUE 1 C TIP
8758 TIP8608 45184 RESIDUE 1 C TIP
8759 TIP8609 45187 RESIDUE 1 C TIP
8760 TIP8610 45190 RESIDUE 1 C TIP
8761 TIP8611 45193 RESIDUE 1 C TIP
8762 TIP8612 45196 RESIDUE 1 C TIP
8763 TIP8613 45199 RESIDUE 1 C TIP
8764 TIP8614 45202 RESIDUE 1 C TIP
8765 TIP8615 45205 RESIDUE 1 C TIP
8766 TIP8616 45208 RESIDUE 1 C TIP
8767 TIP8617 45211 RESIDUE 1 C TIP
8768 TIP8618 45214 RESIDUE 1 C TIP
8769 TIP8619 45217 RESIDUE 1 C TIP
8770 TIP8620 45220 RESIDUE 1 C TIP
8771 TIP8621 45223 RESIDUE 1 C TIP
8772 TIP8622 45226 RESIDUE 1 C TIP
8773 TIP8623 45229 RESIDUE 1 C TIP
8774 TIP8624 45232 RESIDUE 1 C TIP
8775 TIP8625 45235 RESIDUE 1 C TIP
8776 TIP8626 45238 RESIDUE 1 C TIP
8777 TIP8627 45241 RESIDUE 1 C TIP
8778 TIP8628 45244 RESIDUE 1 C TIP
8779 TIP8629 45247 RESIDUE 1 C TIP
8780 TIP8630 45250 RESIDUE 1 C TIP
8781 TIP8631 45253 RESIDUE 1 C TIP
8782 TIP8632 45256 RESIDUE 1 C TIP
8783 TIP8633 45259 RESIDUE 1 C TIP
8784 TIP8634 45262 RESIDUE 1 C TIP
8785 TIP8635 45265 RESIDUE 1 C TIP
8786 TIP8636 45268 RESIDUE 1 C TIP
8787 TIP8637 45271 RESIDUE 1 C TIP
8788 TIP8638 45274 RESIDUE 1 C TIP
8789 TIP8639 45277 RESIDUE 1 C TIP
8790 TIP8640 45280 RESIDUE 1 C TIP
8791 TIP8641 45283 RESIDUE 1 C TIP
8792 TIP8642 45286 RESIDUE 1 C TIP
8793 TIP8643 45289 RESIDUE 1 C TIP
8794 TIP8644 45292 RESIDUE 1 C TIP
8795 TIP8645 45295 RESIDUE 1 C TIP
8796 TIP8646 45298 RESIDUE 1 C TIP
8797 TIP8647 45301 RESIDUE 1 C TIP
8798 TIP8648 45304 RESIDUE 1 C TIP
8799 TIP8649 45307 RESIDUE 1 C TIP
8800 TIP8650 45310 RESIDUE 1 C TIP
8801 TIP8651 45313 RESIDUE 1 C TIP
8802 TIP8652 45316 RESIDUE 1 C TIP
8803 TIP8653 45319 RESIDUE 1 C TIP
8804 TIP8654 45322 RESIDUE 1 C TIP
8805 TIP8655 45325 RESIDUE 1 C TIP
8806 TIP8656 45328 RESIDUE 1 C TIP
8807 TIP8657 45331 RESIDUE 1 C TIP
8808 TIP8658 45334 RESIDUE 1 C TIP
8809 TIP8659 45337 RESIDUE 1 C TIP
8810 TIP8660 45340 RESIDUE 1 C TIP
8811 TIP8661 45343 RESIDUE 1 C TIP
8812 TIP8662 45346 RESIDUE 1 C TIP
8813 TIP8663 45349 RESIDUE 1 C TIP
8814 TIP8664 45352 RESIDUE 1 C TIP
8815 TIP8665 45355 RESIDUE 1 C TIP
8816 TIP8666 45358 RESIDUE 1 C TIP
8817 TIP8667 45361 RESIDUE 1 C TIP
8818 TIP8668 45364 RESIDUE 1 C TIP
8819 TIP8669 45367 RESIDUE 1 C TIP
8820 TIP8670 45370 RESIDUE 1 C TIP
8821 TIP8671 45373 RESIDUE 1 C TIP
8822 TIP8672 45376 RESIDUE 1 C TIP
8823 TIP8673 45379 RESIDUE 1 C TIP
8824 TIP8674 45382 RESIDUE 1 C TIP
8825 TIP8675 45385 RESIDUE 1 C TIP
8826 TIP8676 45388 RESIDUE 1 C TIP
8827 TIP8677 45391 RESIDUE 1 C TIP
8828 TIP8678 45394 RESIDUE 1 C TIP
8829 TIP8679 45397 RESIDUE 1 C TIP
8830 TIP8680 45400 RESIDUE 1 C TIP
8831 TIP8681 45403 RESIDUE 1 C TIP
8832 TIP8682 45406 RESIDUE 1 C TIP
8833 TIP8683 45409 RESIDUE 1 C TIP
8834 TIP8684 45412 RESIDUE 1 C TIP
8835 TIP8685 45415 RESIDUE 1 C TIP
8836 TIP8686 45418 RESIDUE 1 C TIP
8837 TIP8687 45421 RESIDUE 1 C TIP
8838 TIP8688 45424 RESIDUE 1 C TIP
8839 TIP8689 45427 RESIDUE 1 C TIP
8840 TIP8690 45430 RESIDUE 1 C TIP
8841 TIP8691 45433 RESIDUE 1 C TIP
8842 TIP8692 45436 RESIDUE 1 C TIP
8843 TIP8693 45439 RESIDUE 1 C TIP
8844 TIP8694 45442 RESIDUE 1 C TIP
8845 TIP8695 45445 RESIDUE 1 C TIP
8846 TIP8696 45448 RESIDUE 1 C TIP
8847 TIP8697 45451 RESIDUE 1 C TIP
8848 TIP8698 45454 RESIDUE 1 C TIP
8849 TIP8699 45457 RESIDUE 1 C TIP
8850 TIP8700 45460 RESIDUE 1 C TIP
8851 TIP8701 45463 RESIDUE 1 C TIP
8852 TIP8702 45466 RESIDUE 1 C TIP
8853 TIP8703 45469 RESIDUE 1 C TIP
8854 TIP8704 45472 RESIDUE 1 C TIP
8855 TIP8705 45475 RESIDUE 1 C TIP
8856 TIP8706 45478 RESIDUE 1 C TIP
8857 TIP8707 45481 RESIDUE 1 C TIP
8858 TIP8708 45484 RESIDUE 1 C TIP
8859 TIP8709 45487 RESIDUE 1 C TIP
8860 TIP8710 45490 RESIDUE 1 C TIP
8861 TIP8711 45493 RESIDUE 1 C TIP
8862 TIP8712 45496 RESIDUE 1 C TIP
8863 TIP8713 45499 RESIDUE 1 C TIP
8864 TIP8714 45502 RESIDUE 1 C TIP
8865 TIP8715 45505 RESIDUE 1 C TIP
8866 TIP8716 45508 RESIDUE 1 C TIP
8867 TIP8717 45511 RESIDUE 1 C TIP
8868 TIP8718 45514 RESIDUE 1 C TIP
8869 TIP8719 45517 RESIDUE 1 C TIP
8870 TIP8720 45520 RESIDUE 1 C TIP
8871 TIP8721 45523 RESIDUE 1 C TIP
8872 TIP8722 45526 RESIDUE 1 C TIP
8873 TIP8723 45529 RESIDUE 1 C TIP
8874 TIP8724 45532 RESIDUE 1 C TIP
8875 TIP8725 45535 RESIDUE 1 C TIP
8876 TIP8726 45538 RESIDUE 1 C TIP
8877 TIP8727 45541 RESIDUE 1 C TIP
8878 TIP8728 45544 RESIDUE 1 C TIP
8879 TIP8729 45547 RESIDUE 1 C TIP
8880 TIP8730 45550 RESIDUE 1 C TIP
8881 TIP8731 45553 RESIDUE 1 C TIP
8882 TIP8732 45556 RESIDUE 1 C TIP
8883 TIP8733 45559 RESIDUE 1 C TIP
8884 TIP8734 45562 RESIDUE 1 C TIP
8885 TIP8735 45565 RESIDUE 1 C TIP
8886 TIP8736 45568 RESIDUE 1 C TIP
8887 TIP8737 45571 RESIDUE 1 C TIP
8888 TIP8738 45574 RESIDUE 1 C TIP
8889 TIP8739 45577 RESIDUE 1 C TIP
8890 TIP8740 45580 RESIDUE 1 C TIP
8891 TIP8741 45583 RESIDUE 1 C TIP
8892 TIP8742 45586 RESIDUE 1 C TIP
8893 TIP8743 45589 RESIDUE 1 C TIP
8894 TIP8744 45592 RESIDUE 1 C TIP
8895 TIP8745 45595 RESIDUE 1 C TIP
8896 TIP8746 45598 RESIDUE 1 C TIP
8897 TIP8747 45601 RESIDUE 1 C TIP
8898 TIP8748 45604 RESIDUE 1 C TIP
8899 TIP8749 45607 RESIDUE 1 C TIP
8900 TIP8750 45610 RESIDUE 1 C TIP
8901 TIP8751 45613 RESIDUE 1 C TIP
8902 TIP8752 45616 RESIDUE 1 C TIP
8903 TIP8753 45619 RESIDUE 1 C TIP
8904 TIP8754 45622 RESIDUE 1 C TIP
8905 TIP8755 45625 RESIDUE 1 C TIP
8906 TIP8756 45628 RESIDUE 1 C TIP
8907 TIP8757 45631 RESIDUE 1 C TIP
8908 TIP8758 45634 RESIDUE 1 C TIP
8909 TIP8759 45637 RESIDUE 1 C TIP
8910 TIP8760 45640 RESIDUE 1 C TIP
8911 TIP8761 45643 RESIDUE 1 C TIP
8912 TIP8762 45646 RESIDUE 1 C TIP
8913 TIP8763 45649 RESIDUE 1 C TIP
8914 TIP8764 45652 RESIDUE 1 C TIP
8915 TIP8765 45655 RESIDUE 1 C TIP
8916 TIP8766 45658 RESIDUE 1 C TIP
8917 TIP8767 45661 RESIDUE 1 C TIP
8918 TIP8768 45664 RESIDUE 1 C TIP
8919 TIP8769 45667 RESIDUE 1 C TIP
8920 TIP8770 45670 RESIDUE 1 C TIP
8921 TIP8771 45673 RESIDUE 1 C TIP
8922 TIP8772 45676 RESIDUE 1 C TIP
8923 TIP8773 45679 RESIDUE 1 C TIP
8924 TIP8774 45682 RESIDUE 1 C TIP
8925 TIP8775 45685 RESIDUE 1 C TIP
8926 TIP8776 45688 RESIDUE 1 C TIP
8927 TIP8777 45691 RESIDUE 1 C TIP
8928 TIP8778 45694 RESIDUE 1 C TIP
8929 TIP8779 45697 RESIDUE 1 C TIP
8930 TIP8780 45700 RESIDUE 1 C TIP
8931 TIP8781 45703 RESIDUE 1 C TIP
8932 TIP8782 45706 RESIDUE 1 C TIP
8933 TIP8783 45709 RESIDUE 1 C TIP
8934 TIP8784 45712 RESIDUE 1 C TIP
8935 TIP8785 45715 RESIDUE 1 C TIP
8936 TIP8786 45718 RESIDUE 1 C TIP
8937 TIP8787 45721 RESIDUE 1 C TIP
8938 TIP8788 45724 RESIDUE 1 C TIP
8939 TIP8789 45727 RESIDUE 1 C TIP
8940 TIP8790 45730 RESIDUE 1 C TIP
8941 TIP8791 45733 RESIDUE 1 C TIP
8942 TIP8792 45736 RESIDUE 1 C TIP
8943 TIP8793 45739 RESIDUE 1 C TIP
8944 TIP8794 45742 RESIDUE 1 C TIP
8945 TIP8795 45745 RESIDUE 1 C TIP
8946 TIP8796 45748 RESIDUE 1 C TIP
8947 TIP8797 45751 RESIDUE 1 C TIP
8948 TIP8798 45754 RESIDUE 1 C TIP
8949 TIP8799 45757 RESIDUE 1 C TIP
8950 TIP8800 45760 RESIDUE 1 C TIP
8951 TIP8801 45763 RESIDUE 1 C TIP
8952 TIP8802 45766 RESIDUE 1 C TIP
8953 TIP8803 45769 RESIDUE 1 C TIP
8954 TIP8804 45772 RESIDUE 1 C TIP
8955 TIP8805 45775 RESIDUE 1 C TIP
8956 TIP8806 45778 RESIDUE 1 C TIP
8957 TIP8807 45781 RESIDUE 1 C TIP
8958 TIP8808 45784 RESIDUE 1 C TIP
8959 TIP8809 45787 RESIDUE 1 C TIP
8960 TIP8810 45790 RESIDUE 1 C TIP
8961 TIP8811 45793 RESIDUE 1 C TIP
8962 TIP8812 45796 RESIDUE 1 C TIP
8963 TIP8813 45799 RESIDUE 1 C TIP
8964 TIP8814 45802 RESIDUE 1 C TIP
8965 TIP8815 45805 RESIDUE 1 C TIP
8966 TIP8816 45808 RESIDUE 1 C TIP
8967 TIP8817 45811 RESIDUE 1 C TIP
8968 TIP8818 45814 RESIDUE 1 C TIP
8969 TIP8819 45817 RESIDUE 1 C TIP
8970 TIP8820 45820 RESIDUE 1 C TIP
8971 TIP8821 45823 RESIDUE 1 C TIP
8972 TIP8822 45826 RESIDUE 1 C TIP
8973 TIP8823 45829 RESIDUE 1 C TIP
8974 TIP8824 45832 RESIDUE 1 C TIP
8975 TIP8825 45835 RESIDUE 1 C TIP
8976 TIP8826 45838 RESIDUE 1 C TIP
8977 TIP8827 45841 RESIDUE 1 C TIP
8978 TIP8828 45844 RESIDUE 1 C TIP
8979 TIP8829 45847 RESIDUE 1 C TIP
8980 TIP8830 45850 RESIDUE 1 C TIP
8981 TIP8831 45853 RESIDUE 1 C TIP
8982 TIP8832 45856 RESIDUE 1 C TIP
8983 TIP8833 45859 RESIDUE 1 C TIP
8984 TIP8834 45862 RESIDUE 1 C TIP
8985 TIP8835 45865 RESIDUE 1 C TIP
8986 TIP8836 45868 RESIDUE 1 C TIP
8987 TIP8837 45871 RESIDUE 1 C TIP
8988 TIP8838 45874 RESIDUE 1 C TIP
8989 TIP8839 45877 RESIDUE 1 C TIP
8990 TIP8840 45880 RESIDUE 1 C TIP
8991 TIP8841 45883 RESIDUE 1 C TIP
8992 TIP8842 45886 RESIDUE 1 C TIP
8993 TIP8843 45889 RESIDUE 1 C TIP
8994 TIP8844 45892 RESIDUE 1 C TIP
8995 TIP8845 45895 RESIDUE 1 C TIP
8996 TIP8846 45898 RESIDUE 1 C TIP
8997 TIP8847 45901 RESIDUE 1 C TIP
8998 TIP8848 45904 RESIDUE 1 C TIP
8999 TIP8849 45907 RESIDUE 1 C TIP
9000 TIP8850 45910 RESIDUE 1 C TIP
9001 TIP8851 45913 RESIDUE 1 C TIP
9002 TIP8852 45916 RESIDUE 1 C TIP
9003 TIP8853 45919 RESIDUE 1 C TIP
9004 TIP8854 45922 RESIDUE 1 C TIP
9005 TIP8855 45925 RESIDUE 1 C TIP
9006 TIP8856 45928 RESIDUE 1 C TIP
9007 TIP8857 45931 RESIDUE 1 C TIP
9008 TIP8858 45934 RESIDUE 1 C TIP
9009 TIP8859 45937 RESIDUE 1 C TIP
9010 TIP8860 45940 RESIDUE 1 C TIP
9011 TIP8861 45943 RESIDUE 1 C TIP
9012 TIP8862 45946 RESIDUE 1 C TIP
9013 TIP8863 45949 RESIDUE 1 C TIP
9014 TIP8864 45952 RESIDUE 1 C TIP
9015 TIP8865 45955 RESIDUE 1 C TIP
9016 TIP8866 45958 RESIDUE 1 C TIP
9017 TIP8867 45961 RESIDUE 1 C TIP
9018 TIP8868 45964 RESIDUE 1 C TIP
9019 TIP8869 45967 RESIDUE 1 C TIP
9020 TIP8870 45970 RESIDUE 1 C TIP
9021 TIP8871 45973 RESIDUE 1 C TIP
9022 TIP8872 45976 RESIDUE 1 C TIP
9023 TIP8873 45979 RESIDUE 1 C TIP
9024 TIP8874 45982 RESIDUE 1 C TIP
9025 TIP8875 45985 RESIDUE 1 C TIP
9026 TIP8876 45988 RESIDUE 1 C TIP
9027 TIP8877 45991 RESIDUE 1 C TIP
9028 TIP8878 45994 RESIDUE 1 C TIP
9029 TIP8879 45997 RESIDUE 1 C TIP
9030 TIP8880 46000 RESIDUE 1 C TIP
9031 TIP8881 46003 RESIDUE 1 C TIP
9032 TIP8882 46006 RESIDUE 1 C TIP
9033 TIP8883 46009 RESIDUE 1 C TIP
9034 TIP8884 46012 RESIDUE 1 C TIP
9035 TIP8885 46015 RESIDUE 1 C TIP
9036 TIP8886 46018 RESIDUE 1 C TIP
9037 TIP8887 46021 RESIDUE 1 C TIP
9038 TIP8888 46024 RESIDUE 1 C TIP
9039 TIP8889 46027 RESIDUE 1 C TIP
9040 TIP8890 46030 RESIDUE 1 C TIP
9041 TIP8891 46033 RESIDUE 1 C TIP
9042 TIP8892 46036 RESIDUE 1 C TIP
9043 TIP8893 46039 RESIDUE 1 C TIP
9044 TIP8894 46042 RESIDUE 1 C TIP
9045 TIP8895 46045 RESIDUE 1 C TIP
9046 TIP8896 46048 RESIDUE 1 C TIP
9047 TIP8897 46051 RESIDUE 1 C TIP
9048 TIP8898 46054 RESIDUE 1 C TIP
9049 TIP8899 46057 RESIDUE 1 C TIP
9050 TIP8900 46060 RESIDUE 1 C TIP
9051 TIP8901 46063 RESIDUE 1 C TIP
9052 TIP8902 46066 RESIDUE 1 C TIP
9053 TIP8903 46069 RESIDUE 1 C TIP
9054 TIP8904 46072 RESIDUE 1 C TIP
9055 TIP8905 46075 RESIDUE 1 C TIP
9056 TIP8906 46078 RESIDUE 1 C TIP
9057 TIP8907 46081 RESIDUE 1 C TIP
9058 TIP8908 46084 RESIDUE 1 C TIP
9059 TIP8909 46087 RESIDUE 1 C TIP
9060 TIP8910 46090 RESIDUE 1 C TIP
9061 TIP8911 46093 RESIDUE 1 C TIP
9062 TIP8912 46096 RESIDUE 1 C TIP
9063 TIP8913 46099 RESIDUE 1 C TIP
9064 TIP8914 46102 RESIDUE 1 C TIP
9065 TIP8915 46105 RESIDUE 1 C TIP
9066 TIP8916 46108 RESIDUE 1 C TIP
9067 TIP8917 46111 RESIDUE 1 C TIP
9068 TIP8918 46114 RESIDUE 1 C TIP
9069 TIP8919 46117 RESIDUE 1 C TIP
9070 TIP8920 46120 RESIDUE 1 C TIP
9071 TIP8921 46123 RESIDUE 1 C TIP
9072 TIP8922 46126 RESIDUE 1 C TIP
9073 TIP8923 46129 RESIDUE 1 C TIP
9074 TIP8924 46132 RESIDUE 1 C TIP
9075 TIP8925 46135 RESIDUE 1 C TIP
9076 TIP8926 46138 RESIDUE 1 C TIP
9077 TIP8927 46141 RESIDUE 1 C TIP
9078 TIP8928 46144 RESIDUE 1 C TIP
9079 TIP8929 46147 RESIDUE 1 C TIP
9080 TIP8930 46150 RESIDUE 1 C TIP
9081 TIP8931 46153 RESIDUE 1 C TIP
9082 TIP8932 46156 RESIDUE 1 C TIP
9083 TIP8933 46159 RESIDUE 1 C TIP
9084 TIP8934 46162 RESIDUE 1 C TIP
9085 TIP8935 46165 RESIDUE 1 C TIP
9086 TIP8936 46168 RESIDUE 1 C TIP
9087 TIP8937 46171 RESIDUE 1 C TIP
9088 TIP8938 46174 RESIDUE 1 C TIP
9089 TIP8939 46177 RESIDUE 1 C TIP
9090 TIP8940 46180 RESIDUE 1 C TIP
9091 TIP8941 46183 RESIDUE 1 C TIP
9092 TIP8942 46186 RESIDUE 1 C TIP
9093 TIP8943 46189 RESIDUE 1 C TIP
9094 TIP8944 46192 RESIDUE 1 C TIP
9095 TIP8945 46195 RESIDUE 1 C TIP
9096 TIP8946 46198 RESIDUE 1 C TIP
9097 TIP8947 46201 RESIDUE 1 C TIP
9098 TIP8948 46204 RESIDUE 1 C TIP
9099 TIP8949 46207 RESIDUE 1 C TIP
9100 TIP8950 46210 RESIDUE 1 C TIP
9101 TIP8951 46213 RESIDUE 1 C TIP
9102 TIP8952 46216 RESIDUE 1 C TIP
9103 TIP8953 46219 RESIDUE 1 C TIP
9104 TIP8954 46222 RESIDUE 1 C TIP
9105 TIP8955 46225 RESIDUE 1 C TIP
9106 TIP8956 46228 RESIDUE 1 C TIP
9107 TIP8957 46231 RESIDUE 1 C TIP
9108 TIP8958 46234 RESIDUE 1 C TIP
9109 TIP8959 46237 RESIDUE 1 C TIP
9110 TIP8960 46240 RESIDUE 1 C TIP
9111 TIP8961 46243 RESIDUE 1 C TIP
9112 TIP8962 46246 RESIDUE 1 C TIP
9113 TIP8963 46249 RESIDUE 1 C TIP
9114 TIP8964 46252 RESIDUE 1 C TIP
9115 TIP8965 46255 RESIDUE 1 C TIP
9116 TIP8966 46258 RESIDUE 1 C TIP
9117 TIP8967 46261 RESIDUE 1 C TIP
9118 TIP8968 46264 RESIDUE 1 C TIP
9119 TIP8969 46267 RESIDUE 1 C TIP
9120 TIP8970 46270 RESIDUE 1 C TIP
9121 TIP8971 46273 RESIDUE 1 C TIP
9122 TIP8972 46276 RESIDUE 1 C TIP
9123 TIP8973 46279 RESIDUE 1 C TIP
9124 TIP8974 46282 RESIDUE 1 C TIP
9125 TIP8975 46285 RESIDUE 1 C TIP
9126 TIP8976 46288 RESIDUE 1 C TIP
9127 TIP8977 46291 RESIDUE 1 C TIP
9128 TIP8978 46294 RESIDUE 1 C TIP
9129 TIP8979 46297 RESIDUE 1 C TIP
9130 TIP8980 46300 RESIDUE 1 C TIP
9131 TIP8981 46303 RESIDUE 1 C TIP
9132 TIP8982 46306 RESIDUE 1 C TIP
9133 TIP8983 46309 RESIDUE 1 C TIP
9134 TIP8984 46312 RESIDUE 1 C TIP
9135 TIP8985 46315 RESIDUE 1 C TIP
9136 TIP8986 46318 RESIDUE 1 C TIP
9137 TIP8987 46321 RESIDUE 1 C TIP
9138 TIP8988 46324 RESIDUE 1 C TIP
9139 TIP8989 46327 RESIDUE 1 C TIP
9140 TIP8990 46330 RESIDUE 1 C TIP
9141 TIP8991 46333 RESIDUE 1 C TIP
9142 TIP8992 46336 RESIDUE 1 C TIP
9143 TIP8993 46339 RESIDUE 1 C TIP
9144 TIP8994 46342 RESIDUE 1 C TIP
9145 TIP8995 46345 RESIDUE 1 C TIP
9146 TIP8996 46348 RESIDUE 1 C TIP
9147 TIP8997 46351 RESIDUE 1 C TIP
9148 TIP8998 46354 RESIDUE 1 C TIP
9149 TIP8999 46357 RESIDUE 1 C TIP
9150 TIP9000 46360 RESIDUE 1 C TIP
9151 TIP9001 46363 RESIDUE 1 C TIP
9152 TIP9002 46366 RESIDUE 1 C TIP
9153 TIP9003 46369 RESIDUE 1 C TIP
9154 TIP9004 46372 RESIDUE 1 C TIP
9155 TIP9005 46375 RESIDUE 1 C TIP
9156 TIP9006 46378 RESIDUE 1 C TIP
9157 TIP9007 46381 RESIDUE 1 C TIP
9158 TIP9008 46384 RESIDUE 1 C TIP
9159 TIP9009 46387 RESIDUE 1 C TIP
9160 TIP9010 46390 RESIDUE 1 C TIP
9161 TIP9011 46393 RESIDUE 1 C TIP
9162 TIP9012 46396 RESIDUE 1 C TIP
9163 TIP9013 46399 RESIDUE 1 C TIP
9164 TIP9014 46402 RESIDUE 1 C TIP
9165 TIP9015 46405 RESIDUE 1 C TIP
9166 TIP9016 46408 RESIDUE 1 C TIP
9167 TIP9017 46411 RESIDUE 1 C TIP
9168 TIP9018 46414 RESIDUE 1 C TIP
9169 TIP9019 46417 RESIDUE 1 C TIP
9170 TIP9020 46420 RESIDUE 1 C TIP
9171 TIP9021 46423 RESIDUE 1 C TIP
9172 TIP9022 46426 RESIDUE 1 C TIP
9173 TIP9023 46429 RESIDUE 1 C TIP
9174 TIP9024 46432 RESIDUE 1 C TIP
9175 TIP9025 46435 RESIDUE 1 C TIP
9176 TIP9026 46438 RESIDUE 1 C TIP
9177 TIP9027 46441 RESIDUE 1 C TIP
9178 TIP9028 46444 RESIDUE 1 C TIP
9179 TIP9029 46447 RESIDUE 1 C TIP
9180 TIP9030 46450 RESIDUE 1 C TIP
9181 TIP9031 46453 RESIDUE 1 C TIP
9182 TIP9032 46456 RESIDUE 1 C TIP
9183 TIP9033 46459 RESIDUE 1 C TIP
9184 TIP9034 46462 RESIDUE 1 C TIP
9185 TIP9035 46465 RESIDUE 1 C TIP
9186 TIP9036 46468 RESIDUE 1 C TIP
9187 TIP9037 46471 RESIDUE 1 C TIP
9188 TIP9038 46474 RESIDUE 1 C TIP
9189 TIP9039 46477 RESIDUE 1 C TIP
9190 TIP9040 46480 RESIDUE 1 C TIP
9191 TIP9041 46483 RESIDUE 1 C TIP
9192 TIP9042 46486 RESIDUE 1 C TIP
9193 TIP9043 46489 RESIDUE 1 C TIP
9194 TIP9044 46492 RESIDUE 1 C TIP
9195 TIP9045 46495 RESIDUE 1 C TIP
9196 TIP9046 46498 RESIDUE 1 C TIP
9197 TIP9047 46501 RESIDUE 1 C TIP
9198 TIP9048 46504 RESIDUE 1 C TIP
9199 TIP9049 46507 RESIDUE 1 C TIP
9200 TIP9050 46510 RESIDUE 1 C TIP
9201 TIP9051 46513 RESIDUE 1 C TIP
9202 TIP9052 46516 RESIDUE 1 C TIP
9203 TIP9053 46519 RESIDUE 1 C TIP
9204 TIP9054 46522 RESIDUE 1 C TIP
9205 TIP9055 46525 RESIDUE 1 C TIP
9206 TIP9056 46528 RESIDUE 1 C TIP
9207 TIP9057 46531 RESIDUE 1 C TIP
9208 TIP9058 46534 RESIDUE 1 C TIP
9209 TIP9059 46537 RESIDUE 1 C TIP
9210 TIP9060 46540 RESIDUE 1 C TIP
9211 TIP9061 46543 RESIDUE 1 C TIP
9212 TIP9062 46546 RESIDUE 1 C TIP
9213 TIP9063 46549 RESIDUE 1 C TIP
9214 TIP9064 46552 RESIDUE 1 C TIP
9215 TIP9065 46555 RESIDUE 1 C TIP
9216 TIP9066 46558 RESIDUE 1 C TIP
9217 TIP9067 46561 RESIDUE 1 C TIP
9218 TIP9068 46564 RESIDUE 1 C TIP
9219 TIP9069 46567 RESIDUE 1 C TIP
9220 TIP9070 46570 RESIDUE 1 C TIP
9221 TIP9071 46573 RESIDUE 1 C TIP
9222 TIP9072 46576 RESIDUE 1 C TIP
9223 TIP9073 46579 RESIDUE 1 C TIP
9224 TIP9074 46582 RESIDUE 1 C TIP
9225 TIP9075 46585 RESIDUE 1 C TIP
9226 TIP9076 46588 RESIDUE 1 C TIP
9227 TIP9077 46591 RESIDUE 1 C TIP
9228 TIP9078 46594 RESIDUE 1 C TIP
9229 TIP9079 46597 RESIDUE 1 C TIP
9230 TIP9080 46600 RESIDUE 1 C TIP
9231 TIP9081 46603 RESIDUE 1 C TIP
9232 TIP9082 46606 RESIDUE 1 C TIP
9233 TIP9083 46609 RESIDUE 1 C TIP
9234 TIP9084 46612 RESIDUE 1 C TIP
9235 TIP9085 46615 RESIDUE 1 C TIP
9236 TIP9086 46618 RESIDUE 1 C TIP
9237 TIP9087 46621 RESIDUE 1 C TIP
9238 TIP9088 46624 RESIDUE 1 C TIP
9239 TIP9089 46627 RESIDUE 1 C TIP
9240 TIP9090 46630 RESIDUE 1 C TIP
9241 TIP9091 46633 RESIDUE 1 C TIP
9242 TIP9092 46636 RESIDUE 1 C TIP
9243 TIP9093 46639 RESIDUE 1 C TIP
9244 TIP9094 46642 RESIDUE 1 C TIP
9245 TIP9095 46645 RESIDUE 1 C TIP
9246 TIP9096 46648 RESIDUE 1 C TIP
9247 TIP9097 46651 RESIDUE 1 C TIP
9248 TIP9098 46654 RESIDUE 1 C TIP
9249 TIP9099 46657 RESIDUE 1 C TIP
9250 TIP9100 46660 RESIDUE 1 C TIP
9251 TIP9101 46663 RESIDUE 1 C TIP
9252 TIP9102 46666 RESIDUE 1 C TIP
9253 TIP9103 46669 RESIDUE 1 C TIP
9254 TIP9104 46672 RESIDUE 1 C TIP
9255 TIP9105 46675 RESIDUE 1 C TIP
9256 TIP9106 46678 RESIDUE 1 C TIP
9257 TIP9107 46681 RESIDUE 1 C TIP
9258 TIP9108 46684 RESIDUE 1 C TIP
9259 TIP9109 46687 RESIDUE 1 C TIP
9260 TIP9110 46690 RESIDUE 1 C TIP
9261 TIP9111 46693 RESIDUE 1 C TIP
9262 TIP9112 46696 RESIDUE 1 C TIP
9263 TIP9113 46699 RESIDUE 1 C TIP
9264 TIP9114 46702 RESIDUE 1 C TIP
9265 TIP9115 46705 RESIDUE 1 C TIP
9266 TIP9116 46708 RESIDUE 1 C TIP
9267 TIP9117 46711 RESIDUE 1 C TIP
9268 TIP9118 46714 RESIDUE 1 C TIP
9269 TIP9119 46717 RESIDUE 1 C TIP
9270 TIP9120 46720 RESIDUE 1 C TIP
9271 TIP9121 46723 RESIDUE 1 C TIP
9272 TIP9122 46726 RESIDUE 1 C TIP
9273 TIP9123 46729 RESIDUE 1 C TIP
9274 TIP9124 46732 RESIDUE 1 C TIP
9275 TIP9125 46735 RESIDUE 1 C TIP
9276 TIP9126 46738 RESIDUE 1 C TIP
9277 TIP9127 46741 RESIDUE 1 C TIP
9278 TIP9128 46744 RESIDUE 1 C TIP
9279 TIP9129 46747 RESIDUE 1 C TIP
9280 TIP9130 46750 RESIDUE 1 C TIP
9281 TIP9131 46753 RESIDUE 1 C TIP
9282 TIP9132 46756 RESIDUE 1 C TIP
9283 TIP9133 46759 RESIDUE 1 C TIP
9284 TIP9134 46762 RESIDUE 1 C TIP
9285 TIP9135 46765 RESIDUE 1 C TIP
9286 TIP9136 46768 RESIDUE 1 C TIP
9287 TIP9137 46771 RESIDUE 1 C TIP
9288 TIP9138 46774 RESIDUE 1 C TIP
9289 TIP9139 46777 RESIDUE 1 C TIP
9290 TIP9140 46780 RESIDUE 1 C TIP
9291 TIP9141 46783 RESIDUE 1 C TIP
9292 TIP9142 46786 RESIDUE 1 C TIP
9293 TIP9143 46789 RESIDUE 1 C TIP
9294 TIP9144 46792 RESIDUE 1 C TIP
9295 TIP9145 46795 RESIDUE 1 C TIP
9296 TIP9146 46798 RESIDUE 1 C TIP
9297 TIP9147 46801 RESIDUE 1 C TIP
9298 TIP9148 46804 RESIDUE 1 C TIP
9299 TIP9149 46807 RESIDUE 1 C TIP
9300 TIP9150 46810 RESIDUE 1 C TIP
9301 TIP9151 46813 RESIDUE 1 C TIP
9302 TIP9152 46816 RESIDUE 1 C TIP
9303 TIP9153 46819 RESIDUE 1 C TIP
9304 TIP9154 46822 RESIDUE 1 C TIP
9305 TIP9155 46825 RESIDUE 1 C TIP
9306 TIP9156 46828 RESIDUE 1 C TIP
9307 TIP9157 46831 RESIDUE 1 C TIP
9308 TIP9158 46834 RESIDUE 1 C TIP
9309 TIP9159 46837 RESIDUE 1 C TIP
9310 TIP9160 46840 RESIDUE 1 C TIP
9311 TIP9161 46843 RESIDUE 1 C TIP
9312 TIP9162 46846 RESIDUE 1 C TIP
9313 TIP9163 46849 RESIDUE 1 C TIP
9314 TIP9164 46852 RESIDUE 1 C TIP
9315 TIP9165 46855 RESIDUE 1 C TIP
9316 TIP9166 46858 RESIDUE 1 C TIP
9317 TIP9167 46861 RESIDUE 1 C TIP
9318 TIP9168 46864 RESIDUE 1 C TIP
9319 TIP9169 46867 RESIDUE 1 C TIP
9320 TIP9170 46870 RESIDUE 1 C TIP
9321 TIP9171 46873 RESIDUE 1 C TIP
9322 TIP9172 46876 RESIDUE 1 C TIP
9323 TIP9173 46879 RESIDUE 1 C TIP
9324 TIP9174 46882 RESIDUE 1 C TIP
9325 TIP9175 46885 RESIDUE 1 C TIP
9326 TIP9176 46888 RESIDUE 1 C TIP
9327 TIP9177 46891 RESIDUE 1 C TIP
9328 TIP9178 46894 RESIDUE 1 C TIP
9329 TIP9179 46897 RESIDUE 1 C TIP
9330 TIP9180 46900 RESIDUE 1 C TIP
9331 TIP9181 46903 RESIDUE 1 C TIP
9332 TIP9182 46906 RESIDUE 1 C TIP
9333 TIP9183 46909 RESIDUE 1 C TIP
9334 TIP9184 46912 RESIDUE 1 C TIP
9335 TIP9185 46915 RESIDUE 1 C TIP
9336 TIP9186 46918 RESIDUE 1 C TIP
9337 TIP9187 46921 RESIDUE 1 C TIP
9338 TIP9188 46924 RESIDUE 1 C TIP
9339 TIP9189 46927 RESIDUE 1 C TIP
9340 TIP9190 46930 RESIDUE 1 C TIP
9341 TIP9191 46933 RESIDUE 1 C TIP
9342 TIP9192 46936 RESIDUE 1 C TIP
9343 TIP9193 46939 RESIDUE 1 C TIP
9344 TIP9194 46942 RESIDUE 1 C TIP
9345 TIP9195 46945 RESIDUE 1 C TIP
9346 TIP9196 46948 RESIDUE 1 C TIP
9347 TIP9197 46951 RESIDUE 1 C TIP
9348 TIP9198 46954 RESIDUE 1 C TIP
9349 TIP9199 46957 RESIDUE 1 C TIP
9350 TIP9200 46960 RESIDUE 1 C TIP
9351 TIP9201 46963 RESIDUE 1 C TIP
9352 TIP9202 46966 RESIDUE 1 C TIP
9353 TIP9203 46969 RESIDUE 1 C TIP
9354 TIP9204 46972 RESIDUE 1 C TIP
9355 TIP9205 46975 RESIDUE 1 C TIP
9356 TIP9206 46978 RESIDUE 1 C TIP
9357 TIP9207 46981 RESIDUE 1 C TIP
9358 TIP9208 46984 RESIDUE 1 C TIP
9359 TIP9209 46987 RESIDUE 1 C TIP
9360 TIP9210 46990 RESIDUE 1 C TIP
9361 TIP9211 46993 RESIDUE 1 C TIP
9362 TIP9212 46996 RESIDUE 1 C TIP
9363 TIP9213 46999 RESIDUE 1 C TIP
9364 TIP9214 47002 RESIDUE 1 C TIP
9365 TIP9215 47005 RESIDUE 1 C TIP
9366 TIP9216 47008 RESIDUE 1 C TIP
9367 TIP9217 47011 RESIDUE 1 C TIP
9368 TIP9218 47014 RESIDUE 1 C TIP
9369 TIP9219 47017 RESIDUE 1 C TIP
9370 TIP9220 47020 RESIDUE 1 C TIP
9371 TIP9221 47023 RESIDUE 1 C TIP
9372 TIP9222 47026 RESIDUE 1 C TIP
9373 TIP9223 47029 RESIDUE 1 C TIP
9374 TIP9224 47032 RESIDUE 1 C TIP
9375 TIP9225 47035 RESIDUE 1 C TIP
9376 TIP9226 47038 RESIDUE 1 C TIP
9377 TIP9227 47041 RESIDUE 1 C TIP
9378 TIP9228 47044 RESIDUE 1 C TIP
9379 TIP9229 47047 RESIDUE 1 C TIP
9380 TIP9230 47050 RESIDUE 1 C TIP
9381 TIP9231 47053 RESIDUE 1 C TIP
9382 TIP9232 47056 RESIDUE 1 C TIP
9383 TIP9233 47059 RESIDUE 1 C TIP
9384 TIP9234 47062 RESIDUE 1 C TIP
9385 TIP9235 47065 RESIDUE 1 C TIP
9386 TIP9236 47068 RESIDUE 1 C TIP
9387 TIP9237 47071 RESIDUE 1 C TIP
9388 TIP9238 47074 RESIDUE 1 C TIP
9389 TIP9239 47077 RESIDUE 1 C TIP
9390 TIP9240 47080 RESIDUE 1 C TIP
9391 TIP9241 47083 RESIDUE 1 C TIP
9392 TIP9242 47086 RESIDUE 1 C TIP
9393 TIP9243 47089 RESIDUE 1 C TIP
9394 TIP9244 47092 RESIDUE 1 C TIP
9395 TIP9245 47095 RESIDUE 1 C TIP
9396 TIP9246 47098 RESIDUE 1 C TIP
9397 TIP9247 47101 RESIDUE 1 C TIP
9398 TIP9248 47104 RESIDUE 1 C TIP
9399 TIP9249 47107 RESIDUE 1 C TIP
9400 TIP9250 47110 RESIDUE 1 C TIP
9401 TIP9251 47113 RESIDUE 1 C TIP
9402 TIP9252 47116 RESIDUE 1 C TIP
9403 TIP9253 47119 RESIDUE 1 C TIP
9404 TIP9254 47122 RESIDUE 1 C TIP
9405 TIP9255 47125 RESIDUE 1 C TIP
9406 TIP9256 47128 RESIDUE 1 C TIP
9407 TIP9257 47131 RESIDUE 1 C TIP
9408 TIP9258 47134 RESIDUE 1 C TIP
9409 TIP9259 47137 RESIDUE 1 C TIP
9410 TIP9260 47140 RESIDUE 1 C TIP
9411 TIP9261 47143 RESIDUE 1 C TIP
9412 TIP9262 47146 RESIDUE 1 C TIP
9413 TIP9263 47149 RESIDUE 1 C TIP
9414 TIP9264 47152 RESIDUE 1 C TIP
9415 TIP9265 47155 RESIDUE 1 C TIP
9416 TIP9266 47158 RESIDUE 1 C TIP
9417 TIP9267 47161 RESIDUE 1 C TIP
9418 TIP9268 47164 RESIDUE 1 C TIP
9419 TIP9269 47167 RESIDUE 1 C TIP
9420 TIP9270 47170 RESIDUE 1 C TIP
9421 TIP9271 47173 RESIDUE 1 C TIP
9422 TIP9272 47176 RESIDUE 1 C TIP
9423 TIP9273 47179 RESIDUE 1 C TIP
9424 TIP9274 47182 RESIDUE 1 C TIP
9425 TIP9275 47185 RESIDUE 1 C TIP
9426 TIP9276 47188 RESIDUE 1 C TIP
9427 TIP9277 47191 RESIDUE 1 C TIP
9428 TIP9278 47194 RESIDUE 1 C TIP
9429 TIP9279 47197 RESIDUE 1 C TIP
9430 TIP9280 47200 RESIDUE 1 C TIP
9431 TIP9281 47203 RESIDUE 1 C TIP
9432 TIP9282 47206 RESIDUE 1 C TIP
9433 TIP9283 47209 RESIDUE 1 C TIP
9434 TIP9284 47212 RESIDUE 1 C TIP
9435 TIP9285 47215 RESIDUE 1 C TIP
9436 TIP9286 47218 RESIDUE 1 C TIP
9437 TIP9287 47221 RESIDUE 1 C TIP
9438 TIP9288 47224 RESIDUE 1 C TIP
9439 TIP9289 47227 RESIDUE 1 C TIP
9440 TIP9290 47230 RESIDUE 1 C TIP
9441 TIP9291 47233 RESIDUE 1 C TIP
9442 TIP9292 47236 RESIDUE 1 C TIP
9443 TIP9293 47239 RESIDUE 1 C TIP
9444 TIP9294 47242 RESIDUE 1 C TIP
9445 TIP9295 47245 RESIDUE 1 C TIP
9446 TIP9296 47248 RESIDUE 1 C TIP
9447 TIP9297 47251 RESIDUE 1 C TIP
9448 TIP9298 47254 RESIDUE 1 C TIP
9449 TIP9299 47257 RESIDUE 1 C TIP
9450 TIP9300 47260 RESIDUE 1 C TIP
9451 TIP9301 47263 RESIDUE 1 C TIP
9452 TIP9302 47266 RESIDUE 1 C TIP
9453 TIP9303 47269 RESIDUE 1 C TIP
9454 TIP9304 47272 RESIDUE 1 C TIP
9455 TIP9305 47275 RESIDUE 1 C TIP
9456 TIP9306 47278 RESIDUE 1 C TIP
9457 TIP9307 47281 RESIDUE 1 C TIP
9458 TIP9308 47284 RESIDUE 1 C TIP
9459 TIP9309 47287 RESIDUE 1 C TIP
9460 TIP9310 47290 RESIDUE 1 C TIP
9461 TIP9311 47293 RESIDUE 1 C TIP
9462 TIP9312 47296 RESIDUE 1 C TIP
9463 TIP9313 47299 RESIDUE 1 C TIP
9464 TIP9314 47302 RESIDUE 1 C TIP
9465 TIP9315 47305 RESIDUE 1 C TIP
9466 TIP9316 47308 RESIDUE 1 C TIP
9467 TIP9317 47311 RESIDUE 1 C TIP
9468 TIP9318 47314 RESIDUE 1 C TIP
9469 TIP9319 47317 RESIDUE 1 C TIP
9470 TIP9320 47320 RESIDUE 1 C TIP
9471 TIP9321 47323 RESIDUE 1 C TIP
9472 TIP9322 47326 RESIDUE 1 C TIP
9473 TIP9323 47329 RESIDUE 1 C TIP
9474 TIP9324 47332 RESIDUE 1 C TIP
9475 TIP9325 47335 RESIDUE 1 C TIP
9476 TIP9326 47338 RESIDUE 1 C TIP
9477 TIP9327 47341 RESIDUE 1 C TIP
9478 TIP9328 47344 RESIDUE 1 C TIP
9479 TIP9329 47347 RESIDUE 1 C TIP
9480 TIP9330 47350 RESIDUE 1 C TIP
9481 TIP9331 47353 RESIDUE 1 C TIP
9482 TIP9332 47356 RESIDUE 1 C TIP
9483 TIP9333 47359 RESIDUE 1 C TIP
9484 TIP9334 47362 RESIDUE 1 C TIP
9485 TIP9335 47365 RESIDUE 1 C TIP
9486 TIP9336 47368 RESIDUE 1 C TIP
9487 TIP9337 47371 RESIDUE 1 C TIP
9488 TIP9338 47374 RESIDUE 1 C TIP
9489 TIP9339 47377 RESIDUE 1 C TIP
9490 TIP9340 47380 RESIDUE 1 C TIP
9491 TIP9341 47383 RESIDUE 1 C TIP
9492 TIP9342 47386 RESIDUE 1 C TIP
9493 TIP9343 47389 RESIDUE 1 C TIP
9494 TIP9344 47392 RESIDUE 1 C TIP
9495 TIP9345 47395 RESIDUE 1 C TIP
9496 TIP9346 47398 RESIDUE 1 C TIP
9497 TIP9347 47401 RESIDUE 1 C TIP
9498 TIP9348 47404 RESIDUE 1 C TIP
9499 TIP9349 47407 RESIDUE 1 C TIP
9500 TIP9350 47410 RESIDUE 1 C TIP
9501 TIP9351 47413 RESIDUE 1 C TIP
9502 TIP9352 47416 RESIDUE 1 C TIP
9503 TIP9353 47419 RESIDUE 1 C TIP
9504 TIP9354 47422 RESIDUE 1 C TIP
9505 TIP9355 47425 RESIDUE 1 C TIP
9506 TIP9356 47428 RESIDUE 1 C TIP
9507 TIP9357 47431 RESIDUE 1 C TIP
9508 TIP9358 47434 RESIDUE 1 C TIP
9509 TIP9359 47437 RESIDUE 1 C TIP
9510 TIP9360 47440 RESIDUE 1 C TIP
9511 TIP9361 47443 RESIDUE 1 C TIP
9512 TIP9362 47446 RESIDUE 1 C TIP
9513 TIP9363 47449 RESIDUE 1 C TIP
9514 TIP9364 47452 RESIDUE 1 C TIP
9515 TIP9365 47455 RESIDUE 1 C TIP
9516 TIP9366 47458 RESIDUE 1 C TIP
9517 TIP9367 47461 RESIDUE 1 C TIP
9518 TIP9368 47464 RESIDUE 1 C TIP
9519 TIP9369 47467 RESIDUE 1 C TIP
9520 TIP9370 47470 RESIDUE 1 C TIP
9521 TIP9371 47473 RESIDUE 1 C TIP
9522 TIP9372 47476 RESIDUE 1 C TIP
9523 TIP9373 47479 RESIDUE 1 C TIP
9524 TIP9374 47482 RESIDUE 1 C TIP
9525 TIP9375 47485 RESIDUE 1 C TIP
9526 TIP9376 47488 RESIDUE 1 C TIP
9527 TIP9377 47491 RESIDUE 1 C TIP
9528 TIP9378 47494 RESIDUE 1 C TIP
9529 TIP9379 47497 RESIDUE 1 C TIP
9530 TIP9380 47500 RESIDUE 1 C TIP
9531 TIP9381 47503 RESIDUE 1 C TIP
9532 TIP9382 47506 RESIDUE 1 C TIP
9533 TIP9383 47509 RESIDUE 1 C TIP
9534 TIP9384 47512 RESIDUE 1 C TIP
9535 TIP9385 47515 RESIDUE 1 C TIP
9536 TIP9386 47518 RESIDUE 1 C TIP
9537 TIP9387 47521 RESIDUE 1 C TIP
9538 TIP9388 47524 RESIDUE 1 C TIP
9539 TIP9389 47527 RESIDUE 1 C TIP
9540 TIP9390 47530 RESIDUE 1 C TIP
9541 TIP9391 47533 RESIDUE 1 C TIP
9542 TIP9392 47536 RESIDUE 1 C TIP
9543 TIP9393 47539 RESIDUE 1 C TIP
9544 TIP9394 47542 RESIDUE 1 C TIP
9545 TIP9395 47545 RESIDUE 1 C TIP
9546 TIP9396 47548 RESIDUE 1 C TIP
9547 TIP9397 47551 RESIDUE 1 C TIP
9548 TIP9398 47554 RESIDUE 1 C TIP
9549 TIP9399 47557 RESIDUE 1 C TIP
9550 TIP9400 47560 RESIDUE 1 C TIP
9551 TIP9401 47563 RESIDUE 1 C TIP
9552 TIP9402 47566 RESIDUE 1 C TIP
9553 TIP9403 47569 RESIDUE 1 C TIP
9554 TIP9404 47572 RESIDUE 1 C TIP
9555 TIP9405 47575 RESIDUE 1 C TIP
9556 TIP9406 47578 RESIDUE 1 C TIP
9557 TIP9407 47581 RESIDUE 1 C TIP
9558 TIP9408 47584 RESIDUE 1 C TIP
9559 TIP9409 47587 RESIDUE 1 C TIP
9560 TIP9410 47590 RESIDUE 1 C TIP
9561 TIP9411 47593 RESIDUE 1 C TIP
9562 TIP9412 47596 RESIDUE 1 C TIP
9563 TIP9413 47599 RESIDUE 1 C TIP
9564 TIP9414 47602 RESIDUE 1 C TIP
9565 TIP9415 47605 RESIDUE 1 C TIP
9566 TIP9416 47608 RESIDUE 1 C TIP
9567 TIP9417 47611 RESIDUE 1 C TIP
9568 TIP9418 47614 RESIDUE 1 C TIP
9569 TIP9419 47617 RESIDUE 1 C TIP
9570 TIP9420 47620 RESIDUE 1 C TIP
9571 TIP9421 47623 RESIDUE 1 C TIP
9572 TIP9422 47626 RESIDUE 1 C TIP
9573 TIP9423 47629 RESIDUE 1 C TIP
9574 TIP9424 47632 RESIDUE 1 C TIP
9575 TIP9425 47635 RESIDUE 1 C TIP
9576 TIP9426 47638 RESIDUE 1 C TIP
9577 TIP9427 47641 RESIDUE 1 C TIP
9578 TIP9428 47644 RESIDUE 1 C TIP
9579 TIP9429 47647 RESIDUE 1 C TIP
9580 TIP9430 47650 RESIDUE 1 C TIP
9581 TIP9431 47653 RESIDUE 1 C TIP
9582 TIP9432 47656 RESIDUE 1 C TIP
9583 TIP9433 47659 RESIDUE 1 C TIP
9584 TIP9434 47662 RESIDUE 1 C TIP
9585 TIP9435 47665 RESIDUE 1 C TIP
9586 TIP9436 47668 RESIDUE 1 C TIP
9587 TIP9437 47671 RESIDUE 1 C TIP
9588 TIP9438 47674 RESIDUE 1 C TIP
9589 TIP9439 47677 RESIDUE 1 C TIP
9590 TIP9440 47680 RESIDUE 1 C TIP
9591 TIP9441 47683 RESIDUE 1 C TIP
9592 TIP9442 47686 RESIDUE 1 C TIP
9593 TIP9443 47689 RESIDUE 1 C TIP
9594 TIP9444 47692 RESIDUE 1 C TIP
9595 TIP9445 47695 RESIDUE 1 C TIP
9596 TIP9446 47698 RESIDUE 1 C TIP
9597 TIP9447 47701 RESIDUE 1 C TIP
9598 TIP9448 47704 RESIDUE 1 C TIP
9599 TIP9449 47707 RESIDUE 1 C TIP
9600 TIP9450 47710 RESIDUE 1 C TIP
9601 TIP9451 47713 RESIDUE 1 C TIP
9602 TIP9452 47716 RESIDUE 1 C TIP
9603 TIP9453 47719 RESIDUE 1 C TIP
9604 TIP9454 47722 RESIDUE 1 C TIP
9605 TIP9455 47725 RESIDUE 1 C TIP
9606 TIP9456 47728 RESIDUE 1 C TIP
9607 TIP9457 47731 RESIDUE 1 C TIP
9608 TIP9458 47734 RESIDUE 1 C TIP
9609 TIP9459 47737 RESIDUE 1 C TIP
9610 TIP9460 47740 RESIDUE 1 C TIP
9611 TIP9461 47743 RESIDUE 1 C TIP
9612 TIP9462 47746 RESIDUE 1 C TIP
9613 TIP9463 47749 RESIDUE 1 C TIP
9614 TIP9464 47752 RESIDUE 1 C TIP
9615 TIP9465 47755 RESIDUE 1 C TIP
9616 TIP9466 47758 RESIDUE 1 C TIP
9617 TIP9467 47761 RESIDUE 1 C TIP
9618 TIP9468 47764 RESIDUE 1 C TIP
9619 TIP9469 47767 RESIDUE 1 C TIP
9620 TIP9470 47770 RESIDUE 1 C TIP
9621 TIP9471 47773 RESIDUE 1 C TIP
9622 TIP9472 47776 RESIDUE 1 C TIP
9623 TIP9473 47779 RESIDUE 1 C TIP
9624 TIP9474 47782 RESIDUE 1 C TIP
9625 TIP9475 47785 RESIDUE 1 C TIP
9626 TIP9476 47788 RESIDUE 1 C TIP
9627 TIP9477 47791 RESIDUE 1 C TIP
9628 TIP9478 47794 RESIDUE 1 C TIP
9629 TIP9479 47797 RESIDUE 1 C TIP
9630 TIP9480 47800 RESIDUE 1 C TIP
9631 TIP9481 47803 RESIDUE 1 C TIP
9632 TIP9482 47806 RESIDUE 1 C TIP
9633 TIP9483 47809 RESIDUE 1 C TIP
9634 TIP9484 47812 RESIDUE 1 C TIP
9635 TIP9485 47815 RESIDUE 1 C TIP
9636 TIP9486 47818 RESIDUE 1 C TIP
9637 TIP9487 47821 RESIDUE 1 C TIP
9638 TIP9488 47824 RESIDUE 1 C TIP
9639 TIP9489 47827 RESIDUE 1 C TIP
9640 TIP9490 47830 RESIDUE 1 C TIP
9641 TIP9491 47833 RESIDUE 1 C TIP
9642 TIP9492 47836 RESIDUE 1 C TIP
9643 TIP9493 47839 RESIDUE 1 C TIP
9644 TIP9494 47842 RESIDUE 1 C TIP
9645 TIP9495 47845 RESIDUE 1 C TIP
9646 TIP9496 47848 RESIDUE 1 C TIP
9647 TIP9497 47851 RESIDUE 1 C TIP
9648 TIP9498 47854 RESIDUE 1 C TIP
9649 TIP9499 47857 RESIDUE 1 C TIP
9650 TIP9500 47860 RESIDUE 1 C TIP
9651 TIP9501 47863 RESIDUE 1 C TIP
9652 TIP9502 47866 RESIDUE 1 C TIP
9653 TIP9503 47869 RESIDUE 1 C TIP
9654 TIP9504 47872 RESIDUE 1 C TIP
9655 TIP9505 47875 RESIDUE 1 C TIP
9656 TIP9506 47878 RESIDUE 1 C TIP
9657 TIP9507 47881 RESIDUE 1 C TIP
9658 TIP9508 47884 RESIDUE 1 C TIP
9659 TIP9509 47887 RESIDUE 1 C TIP
9660 TIP9510 47890 RESIDUE 1 C TIP
9661 TIP9511 47893 RESIDUE 1 C TIP
9662 TIP9512 47896 RESIDUE 1 C TIP
9663 TIP9513 47899 RESIDUE 1 C TIP
9664 TIP9514 47902 RESIDUE 1 C TIP
9665 TIP9515 47905 RESIDUE 1 C TIP
9666 TIP9516 47908 RESIDUE 1 C TIP
9667 TIP9517 47911 RESIDUE 1 C TIP
9668 TIP9518 47914 RESIDUE 1 C TIP
9669 TIP9519 47917 RESIDUE 1 C TIP
9670 TIP9520 47920 RESIDUE 1 C TIP
9671 TIP9521 47923 RESIDUE 1 C TIP
9672 TIP9522 47926 RESIDUE 1 C TIP
9673 TIP9523 47929 RESIDUE 1 C TIP
9674 TIP9524 47932 RESIDUE 1 C TIP
9675 TIP9525 47935 RESIDUE 1 C TIP
9676 TIP9526 47938 RESIDUE 1 C TIP
9677 TIP9527 47941 RESIDUE 1 C TIP
9678 TIP9528 47944 RESIDUE 1 C TIP
9679 TIP9529 47947 RESIDUE 1 C TIP
9680 TIP9530 47950 RESIDUE 1 C TIP
9681 TIP9531 47953 RESIDUE 1 C TIP
9682 TIP9532 47956 RESIDUE 1 C TIP
9683 TIP9533 47959 RESIDUE 1 C TIP
9684 TIP9534 47962 RESIDUE 1 C TIP
9685 TIP9535 47965 RESIDUE 1 C TIP
9686 TIP9536 47968 RESIDUE 1 C TIP
9687 TIP9537 47971 RESIDUE 1 C TIP
9688 TIP9538 47974 RESIDUE 1 C TIP
9689 TIP9539 47977 RESIDUE 1 C TIP
9690 TIP9540 47980 RESIDUE 1 C TIP
9691 TIP9541 47983 RESIDUE 1 C TIP
9692 TIP9542 47986 RESIDUE 1 C TIP
9693 TIP9543 47989 RESIDUE 1 C TIP
9694 TIP9544 47992 RESIDUE 1 C TIP
9695 TIP9545 47995 RESIDUE 1 C TIP
9696 TIP9546 47998 RESIDUE 1 C TIP
9697 TIP9547 48001 RESIDUE 1 C TIP
9698 TIP9548 48004 RESIDUE 1 C TIP
9699 TIP9549 48007 RESIDUE 1 C TIP
9700 TIP9550 48010 RESIDUE 1 C TIP
9701 TIP9551 48013 RESIDUE 1 C TIP
9702 TIP9552 48016 RESIDUE 1 C TIP
9703 TIP9553 48019 RESIDUE 1 C TIP
9704 TIP9554 48022 RESIDUE 1 C TIP
9705 TIP9555 48025 RESIDUE 1 C TIP
9706 TIP9556 48028 RESIDUE 1 C TIP
9707 TIP9557 48031 RESIDUE 1 C TIP
9708 TIP9558 48034 RESIDUE 1 C TIP
9709 TIP9559 48037 RESIDUE 1 C TIP
9710 TIP9560 48040 RESIDUE 1 C TIP
9711 TIP9561 48043 RESIDUE 1 C TIP
9712 TIP9562 48046 RESIDUE 1 C TIP
9713 TIP9563 48049 RESIDUE 1 C TIP
9714 TIP9564 48052 RESIDUE 1 C TIP
9715 TIP9565 48055 RESIDUE 1 C TIP
9716 TIP9566 48058 RESIDUE 1 C TIP
9717 TIP9567 48061 RESIDUE 1 C TIP
9718 TIP9568 48064 RESIDUE 1 C TIP
9719 TIP9569 48067 RESIDUE 1 C TIP
9720 TIP9570 48070 RESIDUE 1 C TIP
9721 TIP9571 48073 RESIDUE 1 C TIP
9722 TIP9572 48076 RESIDUE 1 C TIP
9723 TIP9573 48079 RESIDUE 1 C TIP
9724 TIP9574 48082 RESIDUE 1 C TIP
9725 TIP9575 48085 RESIDUE 1 C TIP
9726 TIP9576 48088 RESIDUE 1 C TIP
9727 TIP9577 48091 RESIDUE 1 C TIP
9728 TIP9578 48094 RESIDUE 1 C TIP
9729 TIP9579 48097 RESIDUE 1 C TIP
9730 TIP9580 48100 RESIDUE 1 C TIP
9731 TIP9581 48103 RESIDUE 1 C TIP
9732 TIP9582 48106 RESIDUE 1 C TIP
9733 TIP9583 48109 RESIDUE 1 C TIP
9734 TIP9584 48112 RESIDUE 1 C TIP
9735 TIP9585 48115 RESIDUE 1 C TIP
9736 TIP9586 48118 RESIDUE 1 C TIP
9737 TIP9587 48121 RESIDUE 1 C TIP
9738 TIP9588 48124 RESIDUE 1 C TIP
9739 TIP9589 48127 RESIDUE 1 C TIP
9740 TIP9590 48130 RESIDUE 1 C TIP
9741 TIP9591 48133 RESIDUE 1 C TIP
9742 TIP9592 48136 RESIDUE 1 C TIP
9743 TIP9593 48139 RESIDUE 1 C TIP
9744 TIP9594 48142 RESIDUE 1 C TIP
9745 TIP9595 48145 RESIDUE 1 C TIP
9746 TIP9596 48148 RESIDUE 1 C TIP
9747 TIP9597 48151 RESIDUE 1 C TIP
9748 TIP9598 48154 RESIDUE 1 C TIP
9749 TIP9599 48157 RESIDUE 1 C TIP
9750 TIP9600 48160 RESIDUE 1 C TIP
9751 TIP9601 48163 RESIDUE 1 C TIP
9752 TIP9602 48166 RESIDUE 1 C TIP
9753 TIP9603 48169 RESIDUE 1 C TIP
9754 TIP9604 48172 RESIDUE 1 C TIP
9755 TIP9605 48175 RESIDUE 1 C TIP
9756 TIP9606 48178 RESIDUE 1 C TIP
9757 TIP9607 48181 RESIDUE 1 C TIP
9758 TIP9608 48184 RESIDUE 1 C TIP
9759 TIP9609 48187 RESIDUE 1 C TIP
9760 TIP9610 48190 RESIDUE 1 C TIP
9761 TIP9611 48193 RESIDUE 1 C TIP
9762 TIP9612 48196 RESIDUE 1 C TIP
9763 TIP9613 48199 RESIDUE 1 C TIP
9764 TIP9614 48202 RESIDUE 1 C TIP
9765 TIP9615 48205 RESIDUE 1 C TIP
9766 TIP9616 48208 RESIDUE 1 C TIP
9767 TIP9617 48211 RESIDUE 1 C TIP
9768 TIP9618 48214 RESIDUE 1 C TIP
9769 TIP9619 48217 RESIDUE 1 C TIP
9770 TIP9620 48220 RESIDUE 1 C TIP
9771 TIP9621 48223 RESIDUE 1 C TIP
9772 TIP9622 48226 RESIDUE 1 C TIP
9773 TIP9623 48229 RESIDUE 1 C TIP
9774 TIP9624 48232 RESIDUE 1 C TIP
9775 TIP9625 48235 RESIDUE 1 C TIP
9776 TIP9626 48238 RESIDUE 1 C TIP
9777 TIP9627 48241 RESIDUE 1 C TIP
9778 TIP9628 48244 RESIDUE 1 C TIP
9779 TIP9629 48247 RESIDUE 1 C TIP
9780 TIP9630 48250 RESIDUE 1 C TIP
9781 TIP9631 48253 RESIDUE 1 C TIP
9782 TIP9632 48256 RESIDUE 1 C TIP
9783 TIP9633 48259 RESIDUE 1 C TIP
9784 TIP9634 48262 RESIDUE 1 C TIP
9785 TIP9635 48265 RESIDUE 1 C TIP
9786 TIP9636 48268 RESIDUE 1 C TIP
9787 TIP9637 48271 RESIDUE 1 C TIP
9788 TIP9638 48274 RESIDUE 1 C TIP
9789 TIP9639 48277 RESIDUE 1 C TIP
9790 TIP9640 48280 RESIDUE 1 C TIP
9791 TIP9641 48283 RESIDUE 1 C TIP
9792 TIP9642 48286 RESIDUE 1 C TIP
9793 TIP9643 48289 RESIDUE 1 C TIP
9794 TIP9644 48292 RESIDUE 1 C TIP
9795 TIP9645 48295 RESIDUE 1 C TIP
9796 TIP9646 48298 RESIDUE 1 C TIP
9797 TIP9647 48301 RESIDUE 1 C TIP
9798 TIP9648 48304 RESIDUE 1 C TIP
9799 TIP9649 48307 RESIDUE 1 C TIP
9800 TIP9650 48310 RESIDUE 1 C TIP
9801 TIP9651 48313 RESIDUE 1 C TIP
9802 TIP9652 48316 RESIDUE 1 C TIP
9803 TIP9653 48319 RESIDUE 1 C TIP
9804 TIP9654 48322 RESIDUE 1 C TIP
9805 TIP9655 48325 RESIDUE 1 C TIP
9806 TIP9656 48328 RESIDUE 1 C TIP
9807 TIP9657 48331 RESIDUE 1 C TIP
9808 TIP9658 48334 RESIDUE 1 C TIP
9809 TIP9659 48337 RESIDUE 1 C TIP
9810 TIP9660 48340 RESIDUE 1 C TIP
9811 TIP9661 48343 RESIDUE 1 C TIP
9812 TIP9662 48346 RESIDUE 1 C TIP
9813 TIP9663 48349 RESIDUE 1 C TIP
9814 TIP9664 48352 RESIDUE 1 C TIP
9815 TIP9665 48355 RESIDUE 1 C TIP
9816 TIP9666 48358 RESIDUE 1 C TIP
9817 TIP9667 48361 RESIDUE 1 C TIP
9818 TIP9668 48364 RESIDUE 1 C TIP
9819 TIP9669 48367 RESIDUE 1 C TIP
9820 TIP9670 48370 RESIDUE 1 C TIP
9821 TIP9671 48373 RESIDUE 1 C TIP
9822 TIP9672 48376 RESIDUE 1 C TIP
9823 TIP9673 48379 RESIDUE 1 C TIP
9824 TIP9674 48382 RESIDUE 1 C TIP
9825 TIP9675 48385 RESIDUE 1 C TIP
9826 TIP9676 48388 RESIDUE 1 C TIP
9827 TIP9677 48391 RESIDUE 1 C TIP
9828 TIP9678 48394 RESIDUE 1 C TIP
9829 TIP9679 48397 RESIDUE 1 C TIP
9830 TIP9680 48400 RESIDUE 1 C TIP
9831 TIP9681 48403 RESIDUE 1 C TIP
9832 TIP9682 48406 RESIDUE 1 C TIP
9833 TIP9683 48409 RESIDUE 1 C TIP
9834 TIP9684 48412 RESIDUE 1 C TIP
9835 TIP9685 48415 RESIDUE 1 C TIP
9836 TIP9686 48418 RESIDUE 1 C TIP
9837 TIP9687 48421 RESIDUE 1 C TIP
9838 TIP9688 48424 RESIDUE 1 C TIP
9839 TIP9689 48427 RESIDUE 1 C TIP
9840 TIP9690 48430 RESIDUE 1 C TIP
9841 TIP9691 48433 RESIDUE 1 C TIP
9842 TIP9692 48436 RESIDUE 1 C TIP
9843 TIP9693 48439 RESIDUE 1 C TIP
9844 TIP9694 48442 RESIDUE 1 C TIP
9845 TIP9695 48445 RESIDUE 1 C TIP
9846 TIP9696 48448 RESIDUE 1 C TIP
9847 TIP9697 48451 RESIDUE 1 C TIP
9848 TIP9698 48454 RESIDUE 1 C TIP
9849 TIP9699 48457 RESIDUE 1 C TIP
9850 TIP9700 48460 RESIDUE 1 C TIP
9851 TIP9701 48463 RESIDUE 1 C TIP
9852 TIP9702 48466 RESIDUE 1 C TIP
9853 TIP9703 48469 RESIDUE 1 C TIP
9854 TIP9704 48472 RESIDUE 1 C TIP
9855 TIP9705 48475 RESIDUE 1 C TIP
9856 TIP9706 48478 RESIDUE 1 C TIP
9857 TIP9707 48481 RESIDUE 1 C TIP
9858 TIP9708 48484 RESIDUE 1 C TIP
9859 TIP9709 48487 RESIDUE 1 C TIP
9860 TIP9710 48490 RESIDUE 1 C TIP
9861 TIP9711 48493 RESIDUE 1 C TIP
9862 TIP9712 48496 RESIDUE 1 C TIP
9863 TIP9713 48499 RESIDUE 1 C TIP
9864 TIP9714 48502 RESIDUE 1 C TIP
9865 TIP9715 48505 RESIDUE 1 C TIP
9866 TIP9716 48508 RESIDUE 1 C TIP
9867 TIP9717 48511 RESIDUE 1 C TIP
9868 TIP9718 48514 RESIDUE 1 C TIP
9869 TIP9719 48517 RESIDUE 1 C TIP
9870 TIP9720 48520 RESIDUE 1 C TIP
9871 TIP9721 48523 RESIDUE 1 C TIP
9872 TIP9722 48526 RESIDUE 1 C TIP
9873 TIP9723 48529 RESIDUE 1 C TIP
9874 TIP9724 48532 RESIDUE 1 C TIP
9875 TIP9725 48535 RESIDUE 1 C TIP
9876 TIP9726 48538 RESIDUE 1 C TIP
9877 TIP9727 48541 RESIDUE 1 C TIP
9878 TIP9728 48544 RESIDUE 1 C TIP
9879 TIP9729 48547 RESIDUE 1 C TIP
9880 TIP9730 48550 RESIDUE 1 C TIP
9881 TIP9731 48553 RESIDUE 1 C TIP
9882 TIP9732 48556 RESIDUE 1 C TIP
9883 TIP9733 48559 RESIDUE 1 C TIP
9884 TIP9734 48562 RESIDUE 1 C TIP
9885 TIP9735 48565 RESIDUE 1 C TIP
9886 TIP9736 48568 RESIDUE 1 C TIP
9887 TIP9737 48571 RESIDUE 1 C TIP
9888 TIP9738 48574 RESIDUE 1 C TIP
9889 TIP9739 48577 RESIDUE 1 C TIP
9890 TIP9740 48580 RESIDUE 1 C TIP
9891 TIP9741 48583 RESIDUE 1 C TIP
9892 TIP9742 48586 RESIDUE 1 C TIP
9893 TIP9743 48589 RESIDUE 1 C TIP
9894 TIP9744 48592 RESIDUE 1 C TIP
9895 TIP9745 48595 RESIDUE 1 C TIP
9896 TIP9746 48598 RESIDUE 1 C TIP
9897 TIP9747 48601 RESIDUE 1 C TIP
9898 TIP9748 48604 RESIDUE 1 C TIP
9899 TIP9749 48607 RESIDUE 1 C TIP
9900 TIP9750 48610 RESIDUE 1 C TIP
9901 TIP9751 48613 RESIDUE 1 C TIP
9902 TIP9752 48616 RESIDUE 1 C TIP
9903 TIP9753 48619 RESIDUE 1 C TIP
9904 TIP9754 48622 RESIDUE 1 C TIP
9905 TIP9755 48625 RESIDUE 1 C TIP
9906 TIP9756 48628 RESIDUE 1 C TIP
9907 TIP9757 48631 RESIDUE 1 C TIP
9908 TIP9758 48634 RESIDUE 1 C TIP
9909 TIP9759 48637 RESIDUE 1 C TIP
9910 TIP9760 48640 RESIDUE 1 C TIP
9911 TIP9761 48643 RESIDUE 1 C TIP
9912 TIP9762 48646 RESIDUE 1 C TIP
9913 TIP9763 48649 RESIDUE 1 C TIP
9914 TIP9764 48652 RESIDUE 1 C TIP
9915 TIP9765 48655 RESIDUE 1 C TIP
9916 TIP9766 48658 RESIDUE 1 C TIP
9917 TIP9767 48661 RESIDUE 1 C TIP
9918 TIP9768 48664 RESIDUE 1 C TIP
9919 TIP9769 48667 RESIDUE 1 C TIP
9920 TIP9770 48670 RESIDUE 1 C TIP
9921 TIP9771 48673 RESIDUE 1 C TIP
9922 TIP9772 48676 RESIDUE 1 C TIP
9923 TIP9773 48679 RESIDUE 1 C TIP
9924 TIP9774 48682 RESIDUE 1 C TIP
9925 TIP9775 48685 RESIDUE 1 C TIP
9926 TIP9776 48688 RESIDUE 1 C TIP
9927 TIP9777 48691 RESIDUE 1 C TIP
9928 TIP9778 48694 RESIDUE 1 C TIP
9929 TIP9779 48697 RESIDUE 1 C TIP
9930 TIP9780 48700 RESIDUE 1 C TIP
9931 TIP9781 48703 RESIDUE 1 C TIP
9932 TIP9782 48706 RESIDUE 1 C TIP
9933 TIP9783 48709 RESIDUE 1 C TIP
9934 TIP9784 48712 RESIDUE 1 C TIP
9935 TIP9785 48715 RESIDUE 1 C TIP
9936 TIP9786 48718 RESIDUE 1 C TIP
9937 TIP9787 48721 RESIDUE 1 C TIP
9938 TIP9788 48724 RESIDUE 1 C TIP
9939 TIP9789 48727 RESIDUE 1 C TIP
9940 TIP9790 48730 RESIDUE 1 C TIP
9941 TIP9791 48733 RESIDUE 1 C TIP
9942 TIP9792 48736 RESIDUE 1 C TIP
9943 TIP9793 48739 RESIDUE 1 C TIP
9944 TIP9794 48742 RESIDUE 1 C TIP
9945 TIP9795 48745 RESIDUE 1 C TIP
9946 TIP9796 48748 RESIDUE 1 C TIP
9947 TIP9797 48751 RESIDUE 1 C TIP
9948 TIP9798 48754 RESIDUE 1 C TIP
9949 TIP9799 48757 RESIDUE 1 C TIP
9950 TIP9800 48760 RESIDUE 1 C TIP
9951 TIP9801 48763 RESIDUE 1 C TIP
9952 TIP9802 48766 RESIDUE 1 C TIP
9953 TIP9803 48769 RESIDUE 1 C TIP
9954 TIP9804 48772 RESIDUE 1 C TIP
9955 TIP9805 48775 RESIDUE 1 C TIP
9956 TIP9806 48778 RESIDUE 1 C TIP
9957 TIP9807 48781 RESIDUE 1 C TIP
9958 TIP9808 48784 RESIDUE 1 C TIP
9959 TIP9809 48787 RESIDUE 1 C TIP
9960 TIP9810 48790 RESIDUE 1 C TIP
9961 TIP9811 48793 RESIDUE 1 C TIP
9962 TIP9812 48796 RESIDUE 1 C TIP
9963 TIP9813 48799 RESIDUE 1 C TIP
9964 TIP9814 48802 RESIDUE 1 C TIP
9965 TIP9815 48805 RESIDUE 1 C TIP
9966 TIP9816 48808 RESIDUE 1 C TIP
9967 TIP9817 48811 RESIDUE 1 C TIP
9968 TIP9818 48814 RESIDUE 1 C TIP
9969 TIP9819 48817 RESIDUE 1 C TIP
9970 TIP9820 48820 RESIDUE 1 C TIP
9971 TIP9821 48823 RESIDUE 1 C TIP
9972 TIP9822 48826 RESIDUE 1 C TIP
9973 TIP9823 48829 RESIDUE 1 C TIP
9974 TIP9824 48832 RESIDUE 1 C TIP
9975 TIP9825 48835 RESIDUE 1 C TIP
9976 TIP9826 48838 RESIDUE 1 C TIP
9977 TIP9827 48841 RESIDUE 1 C TIP
9978 TIP9828 48844 RESIDUE 1 C TIP
9979 TIP9829 48847 RESIDUE 1 C TIP
9980 TIP9830 48850 RESIDUE 1 C TIP
9981 TIP9831 48853 RESIDUE 1 C TIP
9982 TIP9832 48856 RESIDUE 1 C TIP
9983 TIP9833 48859 RESIDUE 1 C TIP
9984 TIP9834 48862 RESIDUE 1 C TIP
9985 TIP9835 48865 RESIDUE 1 C TIP
9986 TIP9836 48868 RESIDUE 1 C TIP
9987 TIP9837 48871 RESIDUE 1 C TIP
9988 TIP9838 48874 RESIDUE 1 C TIP
9989 TIP9839 48877 RESIDUE 1 C TIP
9990 TIP9840 48880 RESIDUE 1 C TIP
9991 TIP9841 48883 RESIDUE 1 C TIP
9992 TIP9842 48886 RESIDUE 1 C TIP
9993 TIP9843 48889 RESIDUE 1 C TIP
9994 TIP9844 48892 RESIDUE 1 C TIP
9995 TIP9845 48895 RESIDUE 1 C TIP
9996 TIP9846 48898 RESIDUE 1 C TIP
9997 TIP9847 48901 RESIDUE 1 C TIP
9998 TIP9848 48904 RESIDUE 1 C TIP
9999 TIP9849 48907 RESIDUE 1 C TIP
10000 TIP9850 48910 RESIDUE 1 C TIP
10001 TIP9851 48913 RESIDUE 1 C TIP
10002 TIP9852 48916 RESIDUE 1 C TIP
10003 TIP9853 48919 RESIDUE 1 C TIP
10004 TIP9854 48922 RESIDUE 1 C TIP
10005 TIP9855 48925 RESIDUE 1 C TIP
10006 TIP9856 48928 RESIDUE 1 C TIP
10007 TIP9857 48931 RESIDUE 1 C TIP
10008 TIP9858 48934 RESIDUE 1 C TIP
10009 TIP9859 48937 RESIDUE 1 C TIP
10010 TIP9860 48940 RESIDUE 1 C TIP
10011 TIP9861 48943 RESIDUE 1 C TIP
10012 TIP9862 48946 RESIDUE 1 C TIP
10013 TIP9863 48949 RESIDUE 1 C TIP
10014 TIP9864 48952 RESIDUE 1 C TIP
10015 TIP9865 48955 RESIDUE 1 C TIP
10016 TIP9866 48958 RESIDUE 1 C TIP
10017 TIP9867 48961 RESIDUE 1 C TIP
10018 TIP9868 48964 RESIDUE 1 C TIP
10019 TIP9869 48967 RESIDUE 1 C TIP
10020 TIP9870 48970 RESIDUE 1 C TIP
10021 TIP9871 48973 RESIDUE 1 C TIP
10022 TIP9872 48976 RESIDUE 1 C TIP
10023 TIP9873 48979 RESIDUE 1 C TIP
10024 TIP9874 48982 RESIDUE 1 C TIP
10025 TIP9875 48985 RESIDUE 1 C TIP
10026 TIP9876 48988 RESIDUE 1 C TIP
10027 TIP9877 48991 RESIDUE 1 C TIP
10028 TIP9878 48994 RESIDUE 1 C TIP
10029 TIP9879 48997 RESIDUE 1 C TIP
10030 TIP9880 49000 RESIDUE 1 C TIP
10031 TIP9881 49003 RESIDUE 1 C TIP
10032 TIP9882 49006 RESIDUE 1 C TIP
10033 TIP9883 49009 RESIDUE 1 C TIP
10034 TIP9884 49012 RESIDUE 1 C TIP
10035 TIP9885 49015 RESIDUE 1 C TIP
10036 TIP9886 49018 RESIDUE 1 C TIP
10037 TIP9887 49021 RESIDUE 1 C TIP
10038 TIP9888 49024 RESIDUE 1 C TIP
10039 TIP9889 49027 RESIDUE 1 C TIP
10040 TIP9890 49030 RESIDUE 1 C TIP
10041 TIP9891 49033 RESIDUE 1 C TIP
10042 TIP9892 49036 RESIDUE 1 C TIP
10043 TIP9893 49039 RESIDUE 1 C TIP
10044 TIP9894 49042 RESIDUE 1 C TIP
10045 TIP9895 49045 RESIDUE 1 C TIP
10046 TIP9896 49048 RESIDUE 1 C TIP
10047 TIP9897 49051 RESIDUE 1 C TIP
10048 TIP9898 49054 RESIDUE 1 C TIP
10049 TIP9899 49057 RESIDUE 1 C TIP
10050 TIP9900 49060 RESIDUE 1 C TIP
10051 TIP9901 49063 RESIDUE 1 C TIP
10052 TIP9902 49066 RESIDUE 1 C TIP
10053 TIP9903 49069 RESIDUE 1 C TIP
10054 TIP9904 49072 RESIDUE 1 C TIP
10055 TIP9905 49075 RESIDUE 1 C TIP
10056 TIP9906 49078 RESIDUE 1 C TIP
10057 TIP9907 49081 RESIDUE 1 C TIP
10058 TIP9908 49084 RESIDUE 1 C TIP
10059 TIP9909 49087 RESIDUE 1 C TIP
10060 TIP9910 49090 RESIDUE 1 C TIP
10061 TIP9911 49093 RESIDUE 1 C TIP
10062 TIP9912 49096 RESIDUE 1 C TIP
10063 TIP9913 49099 RESIDUE 1 C TIP
10064 TIP9914 49102 RESIDUE 1 C TIP
10065 TIP9915 49105 RESIDUE 1 C TIP
10066 TIP9916 49108 RESIDUE 1 C TIP
10067 TIP9917 49111 RESIDUE 1 C TIP
10068 TIP9918 49114 RESIDUE 1 C TIP
10069 TIP9919 49117 RESIDUE 1 C TIP
10070 TIP9920 49120 RESIDUE 1 C TIP
10071 TIP9921 49123 RESIDUE 1 C TIP
10072 TIP9922 49126 RESIDUE 1 C TIP
10073 TIP9923 49129 RESIDUE 1 C TIP
10074 TIP9924 49132 RESIDUE 1 C TIP
10075 TIP9925 49135 RESIDUE 1 C TIP
10076 TIP9926 49138 RESIDUE 1 C TIP
10077 TIP9927 49141 RESIDUE 1 C TIP
10078 TIP9928 49144 RESIDUE 1 C TIP
10079 TIP9929 49147 RESIDUE 1 C TIP
10080 TIP9930 49150 RESIDUE 1 C TIP
10081 TIP9931 49153 RESIDUE 1 C TIP
10082 TIP9932 49156 RESIDUE 1 C TIP
10083 TIP9933 49159 RESIDUE 1 C TIP
10084 TIP9934 49162 RESIDUE 1 C TIP
10085 TIP9935 49165 RESIDUE 1 C TIP
10086 TIP9936 49168 RESIDUE 1 C TIP
10087 TIP9937 49171 RESIDUE 1 C TIP
10088 TIP9938 49174 RESIDUE 1 C TIP
10089 TIP9939 49177 RESIDUE 1 C TIP
10090 TIP9940 49180 RESIDUE 1 C TIP
10091 TIP9941 49183 RESIDUE 1 C TIP
10092 TIP9942 49186 RESIDUE 1 C TIP
10093 TIP9943 49189 RESIDUE 1 C TIP
10094 TIP9944 49192 RESIDUE 1 C TIP
10095 TIP9945 49195 RESIDUE 1 C TIP
10096 TIP9946 49198 RESIDUE 1 C TIP
10097 TIP9947 49201 RESIDUE 1 C TIP
10098 TIP9948 49204 RESIDUE 1 C TIP
10099 TIP9949 49207 RESIDUE 1 C TIP
10100 TIP9950 49210 RESIDUE 1 C TIP
10101 TIP9951 49213 RESIDUE 1 C TIP
10102 TIP9952 49216 RESIDUE 1 C TIP
10103 TIP9953 49219 RESIDUE 1 C TIP
10104 TIP9954 49222 RESIDUE 1 C TIP
10105 TIP9955 49225 RESIDUE 1 C TIP
10106 TIP9956 49228 RESIDUE 1 C TIP
10107 TIP9957 49231 RESIDUE 1 C TIP
10108 TIP9958 49234 RESIDUE 1 C TIP
10109 TIP9959 49237 RESIDUE 1 C TIP
10110 TIP9960 49240 RESIDUE 1 C TIP
10111 TIP9961 49243 RESIDUE 1 C TIP
10112 TIP9962 49246 RESIDUE 1 C TIP
10113 TIP9963 49249 RESIDUE 1 C TIP
10114 TIP9964 49252 RESIDUE 1 C TIP
10115 TIP9965 49255 RESIDUE 1 C TIP
10116 TIP9966 49258 RESIDUE 1 C TIP
10117 TIP9967 49261 RESIDUE 1 C TIP
10118 TIP9968 49264 RESIDUE 1 C TIP
10119 TIP9969 49267 RESIDUE 1 C TIP
10120 TIP9970 49270 RESIDUE 1 C TIP
10121 TIP9971 49273 RESIDUE 1 C TIP
10122 TIP9972 49276 RESIDUE 1 C TIP
10123 TIP9973 49279 RESIDUE 1 C TIP
10124 TIP9974 49282 RESIDUE 1 C TIP
10125 TIP9975 49285 RESIDUE 1 C TIP
10126 TIP9976 49288 RESIDUE 1 C TIP
10127 TIP9977 49291 RESIDUE 1 C TIP
10128 TIP9978 49294 RESIDUE 1 C TIP
10129 TIP9979 49297 RESIDUE 1 C TIP
10130 TIP9980 49300 RESIDUE 1 C TIP
10131 TIP9981 49303 RESIDUE 1 C TIP
10132 TIP9982 49306 RESIDUE 1 C TIP
10133 TIP9983 49309 RESIDUE 1 C TIP
10134 TIP9984 49312 RESIDUE 1 C TIP
10135 TIP9985 49315 RESIDUE 1 C TIP
10136 TIP9986 49318 RESIDUE 1 C TIP
10137 TIP9987 49321 RESIDUE 1 C TIP
10138 TIP9988 49324 RESIDUE 1 C TIP
10139 TIP9989 49327 RESIDUE 1 C TIP
10140 TIP9990 49330 RESIDUE 1 C TIP
10141 TIP9991 49333 RESIDUE 1 C TIP
10142 TIP9992 49336 RESIDUE 1 C TIP
10143 TIP9993 49339 RESIDUE 1 C TIP
10144 TIP9994 49342 RESIDUE 1 C TIP
10145 TIP9995 49345 RESIDUE 1 C TIP
10146 TIP9996 49348 RESIDUE 1 C TIP
10147 TIP9997 49351 RESIDUE 1 C TIP
10148 TIP9998 49354 RESIDUE 1 C TIP
10149 TIP9999 49357 RESIDUE 1 C TIP
10150 TIP10000 49360 RESIDUE 1 C TIP
10151 TIP10001 49363 RESIDUE 1 C TIP
10152 TIP10002 49366 RESIDUE 1 C TIP
10153 TIP10003 49369 RESIDUE 1 C TIP
10154 TIP10004 49372 RESIDUE 1 C TIP
10155 TIP10005 49375 RESIDUE 1 C TIP
10156 TIP10006 49378 RESIDUE 1 C TIP
10157 TIP10007 49381 RESIDUE 1 C TIP
10158 TIP10008 49384 RESIDUE 1 C TIP
10159 TIP10009 49387 RESIDUE 1 C TIP
10160 TIP10010 49390 RESIDUE 1 C TIP
10161 TIP10011 49393 RESIDUE 1 C TIP
10162 TIP10012 49396 RESIDUE 1 C TIP
10163 TIP10013 49399 RESIDUE 1 C TIP
10164 TIP10014 49402 RESIDUE 1 C TIP
10165 TIP10015 49405 RESIDUE 1 C TIP
10166 TIP10016 49408 RESIDUE 1 C TIP
10167 TIP10017 49411 RESIDUE 1 C TIP
10168 TIP10018 49414 RESIDUE 1 C TIP
10169 TIP10019 49417 RESIDUE 1 C TIP
10170 TIP10020 49420 RESIDUE 1 C TIP
10171 TIP10021 49423 RESIDUE 1 C TIP
10172 TIP10022 49426 RESIDUE 1 C TIP
10173 TIP10023 49429 RESIDUE 1 C TIP
10174 TIP10024 49432 RESIDUE 1 C TIP
10175 TIP10025 49435 RESIDUE 1 C TIP
10176 TIP10026 49438 RESIDUE 1 C TIP
10177 TIP10027 49441 RESIDUE 1 C TIP
10178 TIP10028 49444 RESIDUE 1 C TIP
10179 TIP10029 49447 RESIDUE 1 C TIP
10180 TIP10030 49450 RESIDUE 1 C TIP
10181 TIP10031 49453 RESIDUE 1 C TIP
10182 TIP10032 49456 RESIDUE 1 C TIP
10183 TIP10033 49459 RESIDUE 1 C TIP
10184 TIP10034 49462 RESIDUE 1 C TIP
10185 TIP10035 49465 RESIDUE 1 C TIP
10186 TIP10036 49468 RESIDUE 1 C TIP
10187 TIP10037 49471 RESIDUE 1 C TIP
10188 TIP10038 49474 RESIDUE 1 C TIP
10189 TIP10039 49477 RESIDUE 1 C TIP
10190 TIP10040 49480 RESIDUE 1 C TIP
10191 TIP10041 49483 RESIDUE 1 C TIP
10192 TIP10042 49486 RESIDUE 1 C TIP
10193 TIP10043 49489 RESIDUE 1 C TIP
10194 TIP10044 49492 RESIDUE 1 C TIP
10195 TIP10045 49495 RESIDUE 1 C TIP
10196 TIP10046 49498 RESIDUE 1 C TIP
10197 TIP10047 49501 RESIDUE 1 C TIP
10198 TIP10048 49504 RESIDUE 1 C TIP
10199 TIP10049 49507 RESIDUE 1 C TIP
10200 TIP10050 49510 RESIDUE 1 C TIP
10201 TIP10051 49513 RESIDUE 1 C TIP
10202 TIP10052 49516 RESIDUE 1 C TIP
10203 TIP10053 49519 RESIDUE 1 C TIP
10204 TIP10054 49522 RESIDUE 1 C TIP
10205 TIP10055 49525 RESIDUE 1 C TIP
10206 TIP10056 49528 RESIDUE 1 C TIP
10207 TIP10057 49531 RESIDUE 1 C TIP
10208 TIP10058 49534 RESIDUE 1 C TIP
10209 TIP10059 49537 RESIDUE 1 C TIP
10210 TIP10060 49540 RESIDUE 1 C TIP
10211 TIP10061 49543 RESIDUE 1 C TIP
10212 TIP10062 49546 RESIDUE 1 C TIP
10213 TIP10063 49549 RESIDUE 1 C TIP
10214 TIP10064 49552 RESIDUE 1 C TIP
10215 TIP10065 49555 RESIDUE 1 C TIP
10216 TIP10066 49558 RESIDUE 1 C TIP
10217 TIP10067 49561 RESIDUE 1 C TIP
10218 TIP10068 49564 RESIDUE 1 C TIP
10219 TIP10069 49567 RESIDUE 1 C TIP
10220 TIP10070 49570 RESIDUE 1 C TIP
10221 TIP10071 49573 RESIDUE 1 C TIP
10222 TIP10072 49576 RESIDUE 1 C TIP
10223 TIP10073 49579 RESIDUE 1 C TIP
10224 TIP10074 49582 RESIDUE 1 C TIP
10225 TIP10075 49585 RESIDUE 1 C TIP
10226 TIP10076 49588 RESIDUE 1 C TIP
10227 TIP10077 49591 RESIDUE 1 C TIP
10228 TIP10078 49594 RESIDUE 1 C TIP
10229 TIP10079 49597 RESIDUE 1 C TIP
10230 TIP10080 49600 RESIDUE 1 C TIP
10231 TIP10081 49603 RESIDUE 1 C TIP
10232 TIP10082 49606 RESIDUE 1 C TIP
10233 TIP10083 49609 RESIDUE 1 C TIP
10234 TIP10084 49612 RESIDUE 1 C TIP
10235 TIP10085 49615 RESIDUE 1 C TIP
10236 TIP10086 49618 RESIDUE 1 C TIP
10237 TIP10087 49621 RESIDUE 1 C TIP
10238 TIP10088 49624 RESIDUE 1 C TIP
10239 TIP10089 49627 RESIDUE 1 C TIP
10240 TIP10090 49630 RESIDUE 1 C TIP
10241 TIP10091 49633 RESIDUE 1 C TIP
10242 TIP10092 49636 RESIDUE 1 C TIP
10243 TIP10093 49639 RESIDUE 1 C TIP
10244 TIP10094 49642 RESIDUE 1 C TIP
10245 TIP10095 49645 RESIDUE 1 C TIP
10246 TIP10096 49648 RESIDUE 1 C TIP
10247 TIP10097 49651 RESIDUE 1 C TIP
10248 TIP10098 49654 RESIDUE 1 C TIP
10249 TIP10099 49657 RESIDUE 1 C TIP
10250 TIP10100 49660 RESIDUE 1 C TIP
10251 TIP10101 49663 RESIDUE 1 C TIP
10252 TIP10102 49666 RESIDUE 1 C TIP
10253 TIP10103 49669 RESIDUE 1 C TIP
10254 TIP10104 49672 RESIDUE 1 C TIP
10255 TIP10105 49675 RESIDUE 1 C TIP
10256 TIP10106 49678 RESIDUE 1 C TIP
10257 TIP10107 49681 RESIDUE 1 C TIP
10258 TIP10108 49684 RESIDUE 1 C TIP
10259 TIP10109 49687 RESIDUE 1 C TIP
10260 TIP10110 49690 RESIDUE 1 C TIP
10261 TIP10111 49693 RESIDUE 1 C TIP
10262 TIP10112 49696 RESIDUE 1 C TIP
10263 TIP10113 49699 RESIDUE 1 C TIP
10264 TIP10114 49702 RESIDUE 1 C TIP
10265 TIP10115 49705 RESIDUE 1 C TIP
10266 TIP10116 49708 RESIDUE 1 C TIP
10267 TIP10117 49711 RESIDUE 1 C TIP
10268 TIP10118 49714 RESIDUE 1 C TIP
10269 TIP10119 49717 RESIDUE 1 C TIP
10270 TIP10120 49720 RESIDUE 1 C TIP
10271 TIP10121 49723 RESIDUE 1 C TIP
10272 TIP10122 49726 RESIDUE 1 C TIP
10273 TIP10123 49729 RESIDUE 1 C TIP
10274 TIP10124 49732 RESIDUE 1 C TIP
10275 TIP10125 49735 RESIDUE 1 C TIP
10276 TIP10126 49738 RESIDUE 1 C TIP
10277 TIP10127 49741 RESIDUE 1 C TIP
10278 TIP10128 49744 RESIDUE 1 C TIP
10279 TIP10129 49747 RESIDUE 1 C TIP
10280 TIP10130 49750 RESIDUE 1 C TIP
10281 TIP10131 49753 RESIDUE 1 C TIP
10282 TIP10132 49756 RESIDUE 1 C TIP
10283 TIP10133 49759 RESIDUE 1 C TIP
10284 TIP10134 49762 RESIDUE 1 C TIP
10285 TIP10135 49765 RESIDUE 1 C TIP
10286 TIP10136 49768 RESIDUE 1 C TIP
10287 TIP10137 49771 RESIDUE 1 C TIP
10288 TIP10138 49774 RESIDUE 1 C TIP
10289 TIP10139 49777 RESIDUE 1 C TIP
10290 TIP10140 49780 RESIDUE 1 C TIP
10291 TIP10141 49783 RESIDUE 1 C TIP
10292 TIP10142 49786 RESIDUE 1 C TIP
10293 TIP10143 49789 RESIDUE 1 C TIP
10294 TIP10144 49792 RESIDUE 1 C TIP
10295 TIP10145 49795 RESIDUE 1 C TIP
10296 TIP10146 49798 RESIDUE 1 C TIP
10297 TIP10147 49801 RESIDUE 1 C TIP
10298 TIP10148 49804 RESIDUE 1 C TIP
10299 TIP10149 49807 RESIDUE 1 C TIP
10300 TIP10150 49810 RESIDUE 1 C TIP
10301 TIP10151 49813 RESIDUE 1 C TIP
10302 TIP10152 49816 RESIDUE 1 C TIP
10303 TIP10153 49819 RESIDUE 1 C TIP
10304 TIP10154 49822 RESIDUE 1 C TIP
10305 TIP10155 49825 RESIDUE 1 C TIP
10306 TIP10156 49828 RESIDUE 1 C TIP
10307 TIP10157 49831 RESIDUE 1 C TIP
10308 TIP10158 49834 RESIDUE 1 C TIP
10309 TIP10159 49837 RESIDUE 1 C TIP
10310 TIP10160 49840 RESIDUE 1 C TIP
10311 TIP10161 49843 RESIDUE 1 C TIP
10312 TIP10162 49846 RESIDUE 1 C TIP
10313 TIP10163 49849 RESIDUE 1 C TIP
10314 TIP10164 49852 RESIDUE 1 C TIP
10315 TIP10165 49855 RESIDUE 1 C TIP
10316 TIP10166 49858 RESIDUE 1 C TIP
10317 TIP10167 49861 RESIDUE 1 C TIP
10318 TIP10168 49864 RESIDUE 1 C TIP
10319 TIP10169 49867 RESIDUE 1 C TIP
10320 TIP10170 49870 RESIDUE 1 C TIP
10321 TIP10171 49873 RESIDUE 1 C TIP
10322 TIP10172 49876 RESIDUE 1 C TIP
10323 TIP10173 49879 RESIDUE 1 C TIP
10324 TIP10174 49882 RESIDUE 1 C TIP
10325 TIP10175 49885 RESIDUE 1 C TIP
10326 TIP10176 49888 RESIDUE 1 C TIP
10327 TIP10177 49891 RESIDUE 1 C TIP
10328 TIP10178 49894 RESIDUE 1 C TIP
10329 TIP10179 49897 RESIDUE 1 C TIP
10330 TIP10180 49900 RESIDUE 1 C TIP
10331 TIP10181 49903 RESIDUE 1 C TIP
10332 TIP10182 49906 RESIDUE 1 C TIP
10333 TIP10183 49909 RESIDUE 1 C TIP
10334 TIP10184 49912 RESIDUE 1 C TIP
10335 TIP10185 49915 RESIDUE 1 C TIP
10336 TIP10186 49918 RESIDUE 1 C TIP
10337 TIP10187 49921 RESIDUE 1 C TIP
10338 TIP10188 49924 RESIDUE 1 C TIP
10339 TIP10189 49927 RESIDUE 1 C TIP
10340 TIP10190 49930 RESIDUE 1 C TIP
10341 TIP10191 49933 RESIDUE 1 C TIP
10342 TIP10192 49936 RESIDUE 1 C TIP
10343 TIP10193 49939 RESIDUE 1 C TIP
10344 TIP10194 49942 RESIDUE 1 C TIP
10345 TIP10195 49945 RESIDUE 1 C TIP
10346 TIP10196 49948 RESIDUE 1 C TIP
10347 TIP10197 49951 RESIDUE 1 C TIP
10348 TIP10198 49954 RESIDUE 1 C TIP
10349 TIP10199 49957 RESIDUE 1 C TIP
10350 TIP10200 49960 RESIDUE 1 C TIP
10351 TIP10201 49963 RESIDUE 1 C TIP
10352 TIP10202 49966 RESIDUE 1 C TIP
10353 TIP10203 49969 RESIDUE 1 C TIP
10354 TIP10204 49972 RESIDUE 1 C TIP
10355 TIP10205 49975 RESIDUE 1 C TIP
10356 TIP10206 49978 RESIDUE 1 C TIP
10357 TIP10207 49981 RESIDUE 1 C TIP
10358 TIP10208 49984 RESIDUE 1 C TIP
10359 TIP10209 49987 RESIDUE 1 C TIP
10360 TIP10210 49990 RESIDUE 1 C TIP
10361 TIP10211 49993 RESIDUE 1 C TIP
10362 TIP10212 49996 RESIDUE 1 C TIP
10363 TIP10213 49999 RESIDUE 1 C TIP
10364 TIP10214 50002 RESIDUE 1 C TIP
10365 TIP10215 50005 RESIDUE 1 C TIP
10366 TIP10216 50008 RESIDUE 1 C TIP
10367 TIP10217 50011 RESIDUE 1 C TIP
10368 TIP10218 50014 RESIDUE 1 C TIP
10369 TIP10219 50017 RESIDUE 1 C TIP
10370 TIP10220 50020 RESIDUE 1 C TIP
10371 TIP10221 50023 RESIDUE 1 C TIP
10372 TIP10222 50026 RESIDUE 1 C TIP
10373 TIP10223 50029 RESIDUE 1 C TIP
10374 TIP10224 50032 RESIDUE 1 C TIP
10375 TIP10225 50035 RESIDUE 1 C TIP
10376 TIP10226 50038 RESIDUE 1 C TIP
10377 TIP10227 50041 RESIDUE 1 C TIP
10378 TIP10228 50044 RESIDUE 1 C TIP
10379 TIP10229 50047 RESIDUE 1 C TIP
10380 TIP10230 50050 RESIDUE 1 C TIP
10381 TIP10231 50053 RESIDUE 1 C TIP
10382 TIP10232 50056 RESIDUE 1 C TIP
10383 TIP10233 50059 RESIDUE 1 C TIP
10384 TIP10234 50062 RESIDUE 1 C TIP
10385 TIP10235 50065 RESIDUE 1 C TIP
10386 TIP10236 50068 RESIDUE 1 C TIP
10387 TIP10237 50071 RESIDUE 1 C TIP
10388 TIP10238 50074 RESIDUE 1 C TIP
10389 TIP10239 50077 RESIDUE 1 C TIP
10390 TIP10240 50080 RESIDUE 1 C TIP
10391 TIP10241 50083 RESIDUE 1 C TIP
10392 TIP10242 50086 RESIDUE 1 C TIP
10393 TIP10243 50089 RESIDUE 1 C TIP
10394 TIP10244 50092 RESIDUE 1 C TIP
10395 TIP10245 50095 RESIDUE 1 C TIP
10396 TIP10246 50098 RESIDUE 1 C TIP
10397 TIP10247 50101 RESIDUE 1 C TIP
10398 TIP10248 50104 RESIDUE 1 C TIP
10399 TIP10249 50107 RESIDUE 1 C TIP
10400 TIP10250 50110 RESIDUE 1 C TIP
10401 TIP10251 50113 RESIDUE 1 C TIP
10402 TIP10252 50116 RESIDUE 1 C TIP
10403 TIP10253 50119 RESIDUE 1 C TIP
10404 TIP10254 50122 RESIDUE 1 C TIP
10405 TIP10255 50125 RESIDUE 1 C TIP
10406 TIP10256 50128 RESIDUE 1 C TIP
10407 TIP10257 50131 RESIDUE 1 C TIP
10408 TIP10258 50134 RESIDUE 1 C TIP
10409 TIP10259 50137 RESIDUE 1 C TIP
10410 TIP10260 50140 RESIDUE 1 C TIP
10411 TIP10261 50143 RESIDUE 1 C TIP
10412 TIP10262 50146 RESIDUE 1 C TIP
10413 TIP10263 50149 RESIDUE 1 C TIP
10414 TIP10264 50152 RESIDUE 1 C TIP
10415 TIP10265 50155 RESIDUE 1 C TIP
10416 TIP10266 50158 RESIDUE 1 C TIP
10417 TIP10267 50161 RESIDUE 1 C TIP
10418 TIP10268 50164 RESIDUE 1 C TIP
10419 TIP10269 50167 RESIDUE 1 C TIP
10420 TIP10270 50170 RESIDUE 1 C TIP
10421 TIP10271 50173 RESIDUE 1 C TIP
10422 TIP10272 50176 RESIDUE 1 C TIP
10423 TIP10273 50179 RESIDUE 1 C TIP
10424 TIP10274 50182 RESIDUE 1 C TIP
10425 TIP10275 50185 RESIDUE 1 C TIP
10426 TIP10276 50188 RESIDUE 1 C TIP
10427 TIP10277 50191 RESIDUE 1 C TIP
10428 TIP10278 50194 RESIDUE 1 C TIP
10429 TIP10279 50197 RESIDUE 1 C TIP
10430 TIP10280 50200 RESIDUE 1 C TIP
10431 TIP10281 50203 RESIDUE 1 C TIP
10432 TIP10282 50206 RESIDUE 1 C TIP
10433 TIP10283 50209 RESIDUE 1 C TIP
10434 TIP10284 50212 RESIDUE 1 C TIP
10435 TIP10285 50215 RESIDUE 1 C TIP
10436 TIP10286 50218 RESIDUE 1 C TIP
10437 TIP10287 50221 RESIDUE 1 C TIP
10438 TIP10288 50224 RESIDUE 1 C TIP
10439 TIP10289 50227 RESIDUE 1 C TIP
10440 TIP10290 50230 RESIDUE 1 C TIP
10441 TIP10291 50233 RESIDUE 1 C TIP
10442 TIP10292 50236 RESIDUE 1 C TIP
10443 TIP10293 50239 RESIDUE 1 C TIP
10444 TIP10294 50242 RESIDUE 1 C TIP
10445 TIP10295 50245 RESIDUE 1 C TIP
10446 TIP10296 50248 RESIDUE 1 C TIP
10447 TIP10297 50251 RESIDUE 1 C TIP
10448 TIP10298 50254 RESIDUE 1 C TIP
10449 TIP10299 50257 RESIDUE 1 C TIP
10450 TIP10300 50260 RESIDUE 1 C TIP
10451 TIP10301 50263 RESIDUE 1 C TIP
10452 TIP10302 50266 RESIDUE 1 C TIP
10453 TIP10303 50269 RESIDUE 1 C TIP
10454 TIP10304 50272 RESIDUE 1 C TIP
10455 TIP10305 50275 RESIDUE 1 C TIP
10456 TIP10306 50278 RESIDUE 1 C TIP
10457 TIP10307 50281 RESIDUE 1 C TIP
10458 TIP10308 50284 RESIDUE 1 C TIP
10459 TIP10309 50287 RESIDUE 1 C TIP
10460 TIP10310 50290 RESIDUE 1 C TIP
10461 TIP10311 50293 RESIDUE 1 C TIP
10462 TIP10312 50296 RESIDUE 1 C TIP
10463 TIP10313 50299 RESIDUE 1 C TIP
10464 TIP10314 50302 RESIDUE 1 C TIP
10465 TIP10315 50305 RESIDUE 1 C TIP
10466 TIP10316 50308 RESIDUE 1 C TIP
10467 TIP10317 50311 RESIDUE 1 C TIP
10468 TIP10318 50314 RESIDUE 1 C TIP
10469 TIP10319 50317 RESIDUE 1 C TIP
10470 TIP10320 50320 RESIDUE 1 C TIP
10471 TIP10321 50323 RESIDUE 1 C TIP
10472 TIP10322 50326 RESIDUE 1 C TIP
10473 TIP10323 50329 RESIDUE 1 C TIP
10474 TIP10324 50332 RESIDUE 1 C TIP
10475 TIP10325 50335 RESIDUE 1 C TIP
10476 TIP10326 50338 RESIDUE 1 C TIP
10477 TIP10327 50341 RESIDUE 1 C TIP
10478 TIP10328 50344 RESIDUE 1 C TIP
10479 TIP10329 50347 RESIDUE 1 C TIP
10480 TIP10330 50350 RESIDUE 1 C TIP
10481 TIP10331 50353 RESIDUE 1 C TIP
10482 TIP10332 50356 RESIDUE 1 C TIP
10483 TIP10333 50359 RESIDUE 1 C TIP
10484 TIP10334 50362 RESIDUE 1 C TIP
10485 TIP10335 50365 RESIDUE 1 C TIP
10486 TIP10336 50368 RESIDUE 1 C TIP
10487 TIP10337 50371 RESIDUE 1 C TIP
10488 TIP10338 50374 RESIDUE 1 C TIP
10489 TIP10339 50377 RESIDUE 1 C TIP
10490 TIP10340 50380 RESIDUE 1 C TIP
10491 TIP10341 50383 RESIDUE 1 C TIP
10492 TIP10342 50386 RESIDUE 1 C TIP
10493 POT1 50389 RESIDUE 1 D POT
10494 POT2 50390 RESIDUE 1 D POT
10495 POT3 50391 RESIDUE 1 D POT
10496 POT4 50392 RESIDUE 1 D POT
10497 POT5 50393 RESIDUE 1 D POT
10498 POT6 50394 RESIDUE 1 D POT
10499 POT7 50395 RESIDUE 1 D POT
10500 POT8 50396 RESIDUE 1 D POT
10501 POT9 50397 RESIDUE 1 D POT
10502 POT10 50398 RESIDUE 1 D POT
10503 POT11 50399 RESIDUE 1 D POT
10504 POT12 50400 RESIDUE 1 D POT
10505 POT13 50401 RESIDUE 1 D POT
10506 POT14 50402 RESIDUE 1 D POT
10507 POT15 50403 RESIDUE 1 D POT
10508 POT16 50404 RESIDUE 1 D POT
10509 POT17 50405 RESIDUE 1 D POT
10510 POT18 50406 RESIDUE 1 D POT
10511 POT19 50407 RESIDUE 1 D POT
10512 POT20 50408 RESIDUE 1 D POT
10513 POT21 50409 RESIDUE 1 D POT
10514 POT22 50410 RESIDUE 1 D POT
10515 POT23 50411 RESIDUE 1 D POT
10516 POT24 50412 RESIDUE 1 D POT
10517 POT25 50413 RESIDUE 1 D POT
10518 POT26 50414 RESIDUE 1 D POT
10519 POT27 50415 RESIDUE 1 D POT
10520 CLA28 50416 RESIDUE 1 E CLA
10521 CLA29 50417 RESIDUE 1 E CLA
10522 CLA30 50418 RESIDUE 1 E CLA
10523 CLA31 50419 RESIDUE 1 E CLA
10524 CLA32 50420 RESIDUE 1 E CLA
10525 CLA33 50421 RESIDUE 1 E CLA
10526 CLA34 50422 RESIDUE 1 E CLA
10527 CLA35 50423 RESIDUE 1 E CLA
10528 CLA36 50424 RESIDUE 1 E CLA
10529 CLA37 50425 RESIDUE 1 E CLA
10530 CLA38 50426 RESIDUE 1 E CLA
10531 CLA39 50427 RESIDUE 1 E CLA
10532 CLA40 50428 RESIDUE 1 E CLA
10533 CLA41 50429 RESIDUE 1 E CLA
10534 CLA42 50430 RESIDUE 1 E CLA
10535 CLA43 50431 RESIDUE 1 E CLA
10536 CLA44 50432 RESIDUE 1 E CLA
10537 CLA45 50433 RESIDUE 1 E CLA
10538 CLA46 50434 RESIDUE 1 E CLA
10539 CLA47 50435 RESIDUE 1 E CLA
10540 CLA48 50436 RESIDUE 1 E CLA
10541 CLA49 50437 RESIDUE 1 E CLA
10542 CLA50 50438 RESIDUE 1 E CLA
10543 CLA51 50439 RESIDUE 1 E CLA
10544 CLA52 50440 RESIDUE 1 E CLA
10545 CLA53 50441 RESIDUE 1 E CLA
10546 CLA54 50442 RESIDUE 1 E CLA
